2vl4_ligand_rnum.pdb
 OpenBabel02151809393D

 25 25  0  0  1  0  0  0  0  0999 V2000
   27.9420   47.1990    0.2660 C   0  0  2  0  0  0  0  0  0  0  0  0
   27.3400   45.8880   -0.2660 C   0  0  2  0  0  0  0  0  0  0  0  0
   27.6210   48.3830   -0.6710 C   0  0  2  0  0  0  0  0  0  0  0  0
   29.3650   47.0810    0.4150 O   0  0  0  0  0  0  0  0  0  0  0  0
   27.9690   44.7130    0.2310 O   0  0  0  0  0  0  0  0  0  0  0  0
   27.4450   45.7790   -1.7160 N   0  3  0  0  0  0  0  0  0  0  0  0
   27.3180   49.5580    0.0990 O   0  0  0  0  0  0  0  0  0  0  0  0
   26.5030   48.0750   -1.7060 C   0  0  1  0  0  0  0  0  0  0  0  0
   26.1150   49.3000   -2.5750 C   0  0  0  0  0  0  0  0  0  0  0  0
   26.9730   46.8880   -2.5590 C   0  0  0  0  0  0  0  0  0  0  0  0
   27.2120   49.7050   -3.3890 O   0  0  0  0  0  0  0  0  0  0  0  0
   27.5390   47.3750    1.2630 H   0  0  0  0  0  0  0  0  0  0  0  0
   26.2840   45.8480   -0.0020 H   0  0  0  0  0  0  0  0  0  0  0  0
   28.5230   48.6290   -1.2350 H   0  0  0  0  0  0  0  0  0  0  0  0
   29.5500   46.2490    0.8230 H   0  0  0  0  0  0  0  0  0  0  0  0
   27.2980   44.0340    0.3040 H   0  0  0  0  0  0  0  0  0  0  0  0
   26.9230   44.9480   -1.9790 H   0  0  0  0  0  0  0  0  0  0  0  0
   28.4160   45.6080   -1.9400 H   0  0  0  0  0  0  0  0  0  0  0  0
   27.6010   50.3480   -0.3610 H   0  0  0  0  0  0  0  0  0  0  0  0
   25.6040   47.7770   -1.1720 H   0  0  0  0  0  0  0  0  0  0  0  0
   25.7830   50.1380   -1.9620 H   0  0  0  0  0  0  0  0  0  0  0  0
   25.2800   49.0420   -3.2280 H   0  0  0  0  0  0  0  0  0  0  0  0
   26.1780   46.5370   -3.2010 H   0  0  0  0  0  0  0  0  0  0  0  0
   27.7970   47.1720   -3.2140 H   0  0  0  0  0  0  0  0  0  0  0  0
   27.8470   50.1720   -2.8510 H   0  0  0  0  0  0  0  0  0  0  0  0
  1  3  1  6  0  0  0
  1  4  1  0  0  0  0
  1 12  1  0  0  0  0
  2 13  1  0  0  0  0
  2  5  1  0  0  0  0
  2  1  1  1  0  0  0
  3  8  1  6  0  0  0
  3  7  1  0  0  0  0
  4 15  1  0  0  0  0
  5 16  1  0  0  0  0
  6  2  1  0  0  0  0
  8 20  1  1  0  0  0
  9 21  1  0  0  0  0
  9  8  1  0  0  0  0
 10  6  1  0  0  0  0
 10  8  1  0  0  0  0
 11 25  1  0  0  0  0
 11  9  1  0  0  0  0
 14  3  1  0  0  0  0
 17  6  1  0  0  0  0
 18  6  1  0  0  0  0
 19  7  1  0  0  0  0
 22  9  1  0  0  0  0
 23 10  1  0  0  0  0
 24 10  1  0  0  0  0
M  CHG  1   6   1
M  END
$$$$
