2gss_ligand_rnum.pdb
 OpenBabel02151809393D

 30 30  0  0  0  0  0  0  0  0999 V2000
    7.9400    3.6820   25.9280 C   0  0  0  0  0  0  0  0  0  0  0  0
    8.9290    4.1010   25.0970 O   0  0  0  0  0  0  0  0  0  0  0  0
    8.2770    2.6700   26.8480 C   0  0  0  0  0  0  0  0  0  0  0  0
    9.9000    2.0990   26.8510 Cl  0  0  0  0  0  0  0  0  0  0  0  0
    7.3580    2.1900   27.7220 C   0  0  0  0  0  0  0  0  0  0  0  0
    7.8080    0.9230   28.8280 Cl  0  0  0  0  0  0  0  0  0  0  0  0
    6.0400    2.6530   27.7270 C   0  0  0  0  0  0  0  0  0  0  0  0
    5.7110    3.6480   26.8010 C   0  0  0  0  0  0  0  0  0  0  0  0
    6.6340    4.1410   25.9200 C   0  0  0  0  0  0  0  0  0  0  0  0
    5.0500    2.2350   28.7710 C   0  0  0  0  0  0  0  0  0  0  0  0
    4.5330    1.1470   28.7190 O   0  0  0  0  0  0  0  0  0  0  0  0
    4.7170    3.1410   29.9000 C   0  0  0  0  0  0  0  0  0  0  0  0
    4.9690    2.6060   31.2620 C   0  0  0  0  0  0  0  0  0  0  0  0
    5.6550    3.4510   32.2280 C   0  0  0  0  0  0  0  0  0  0  0  0
    4.1860    4.3020   29.6430 C   0  0  0  0  0  0  0  0  0  0  0  0
    8.6800    5.2280   24.2860 C   0  0  0  0  0  0  0  0  0  0  0  0
    9.9070    5.5890   23.5350 C   0  0  0  0  0  0  0  0  0  0  0  0
    9.8520    6.6840   22.9080 O   0  0  0  0  0  0  0  0  0  0  0  0
   10.9340    4.8540   23.5630 O   0  5  0  0  0  0  0  0  0  0  0  0
    4.7050    4.0340   26.7490 H   0  0  0  0  0  0  0  0  0  0  0  0
    6.3090    4.8950   25.2200 H   0  0  0  0  0  0  0  0  0  0  0  0
    5.5490    1.6840   31.1850 H   0  0  0  0  0  0  0  0  0  0  0  0
    4.0070    2.3020   31.6760 H   0  0  0  0  0  0  0  0  0  0  0  0
    5.8750    2.9050   33.1460 H   0  0  0  0  0  0  0  0  0  0  0  0
    6.5960    3.8130   31.8180 H   0  0  0  0  0  0  0  0  0  0  0  0
    5.0520    4.3190   32.4950 H   0  0  0  0  0  0  0  0  0  0  0  0
    3.9190    4.9690   30.4500 H   0  0  0  0  0  0  0  0  0  0  0  0
    3.9860    4.6580   28.6460 H   0  0  0  0  0  0  0  0  0  0  0  0
    8.3750    6.0800   24.8960 H   0  0  0  0  0  0  0  0  0  0  0  0
    7.8880    5.0130   23.5670 H   0  0  0  0  0  0  0  0  0  0  0  0
  1  3  1  0  0  0  0
  2  1  1  0  0  0  0
  3  4  1  0  0  0  0
  3  5  2  0  0  0  0
  5  7  1  0  0  0  0
  5  6  1  0  0  0  0
  7 10  1  0  0  0  0
  8  7  2  0  0  0  0
  9  1  2  0  0  0  0
  9  8  1  0  0  0  0
 10 12  1  0  0  0  0
 11 10  2  0  0  0  0
 12 13  1  0  0  0  0
 13 23  1  0  0  0  0
 13 14  1  0  0  0  0
 14 26  1  0  0  0  0
 14 24  1  0  0  0  0
 15 12  2  0  0  0  0
 15 27  1  0  0  0  0
 16 29  1  0  0  0  0
 16  2  1  0  0  0  0
 17 19  1  0  0  0  0
 17 16  1  0  0  0  0
 18 17  2  0  0  0  0
 20  8  1  0  0  0  0
 21  9  1  0  0  0  0
 22 13  1  0  0  0  0
 25 14  1  0  0  0  0
 28 15  1  0  0  0  0
 30 16  1  0  0  0  0
M  CHG  1  19  -1
M  END
$$$$
