3uex_ligand_rnum.pdb
 OpenBabel02151809393D

 55 54  0  0  0  0  0  0  0  0999 V2000
   -0.7930    2.2250   21.0740 C   0  0  0  0  0  0  0  0  0  0  0  0
   -1.9940    1.8610   21.1150 O   0  0  0  0  0  0  0  0  0  0  0  0
    0.1080    1.7000   21.7640 O   0  5  0  0  0  0  0  0  0  0  0  0
   -0.4340    3.3740   20.1690 C   0  0  0  0  0  0  0  0  0  0  0  0
   -0.8990    4.6780   20.8120 C   0  0  0  0  0  0  0  0  0  0  0  0
   -2.0370    5.3190   20.0220 C   0  0  0  0  0  0  0  0  0  0  0  0
   -3.0720    5.9520   20.9370 C   0  0  0  0  0  0  0  0  0  0  0  0
   -4.0720    6.8100   20.1700 C   0  0  0  0  0  0  0  0  0  0  0  0
   -3.3440    7.8860   19.3750 C   0  0  0  0  0  0  0  0  0  0  0  0
   -4.1370    9.1690   19.3320 C   0  0  0  0  0  0  0  0  0  0  0  0
   -3.1970   10.2980   18.9430 C   0  0  0  0  0  0  0  0  0  0  0  0
   -4.0170   11.5370   18.6110 C   0  0  0  0  0  0  0  0  0  0  0  0
   -3.0960   12.7230   18.8150 C   0  0  0  0  0  0  0  0  0  0  0  0
   -3.8460   13.9770   18.4280 C   0  0  0  0  0  0  0  0  0  0  0  0
   -2.8480   15.0820   18.2380 C   0  0  0  0  0  0  0  0  0  0  0  0
   -3.5330   16.4330   18.1320 C   0  0  0  0  0  0  0  0  0  0  0  0
   -3.7780   16.8230   16.6750 C   0  0  0  0  0  0  0  0  0  0  0  0
   -4.5050   18.1520   16.6760 C   0  0  0  0  0  0  0  0  0  0  0  0
   -4.6580   18.7330   15.2940 C   0  0  0  0  0  0  0  0  0  0  0  0
   -4.8030   17.6680   14.2280 C   0  0  0  0  0  0  0  0  0  0  0  0
   -0.8550    3.2100   19.1770 H   0  0  0  0  0  0  0  0  0  0  0  0
    0.6420    3.3690   20.0390 H   0  0  0  0  0  0  0  0  0  0  0  0
   -0.0660    5.3790   20.8760 H   0  0  0  0  0  0  0  0  0  0  0  0
   -1.2230    4.5230   21.8430 H   0  0  0  0  0  0  0  0  0  0  0  0
   -2.5520    4.5900   19.3960 H   0  0  0  0  0  0  0  0  0  0  0  0
   -1.5900    6.0410   19.3490 H   0  0  0  0  0  0  0  0  0  0  0  0
   -2.5830    6.5700   21.6880 H   0  0  0  0  0  0  0  0  0  0  0  0
   -3.6030    5.1740   21.4880 H   0  0  0  0  0  0  0  0  0  0  0  0
   -4.7620    7.2440   20.8950 H   0  0  0  0  0  0  0  0  0  0  0  0
   -4.6790    6.1970   19.5020 H   0  0  0  0  0  0  0  0  0  0  0  0
   -3.1390    7.5360   18.3640 H   0  0  0  0  0  0  0  0  0  0  0  0
   -2.3820    8.1020   19.8440 H   0  0  0  0  0  0  0  0  0  0  0  0
   -4.4900    9.3560   20.3290 H   0  0  0  0  0  0  0  0  0  0  0  0
   -4.9980    9.0810   18.6680 H   0  0  0  0  0  0  0  0  0  0  0  0
   -2.5900   10.0260   18.0780 H   0  0  0  0  0  0  0  0  0  0  0  0
   -2.5080   10.4810   19.7700 H   0  0  0  0  0  0  0  0  0  0  0  0
   -4.8750   11.6320   19.2750 H   0  0  0  0  0  0  0  0  0  0  0  0
   -4.3990   11.5000   17.5970 H   0  0  0  0  0  0  0  0  0  0  0  0
   -2.2000   12.5950   18.2220 H   0  0  0  0  0  0  0  0  0  0  0  0
   -2.7750   12.7940   19.8560 H   0  0  0  0  0  0  0  0  0  0  0  0
   -4.6010   14.2180   19.1600 H   0  0  0  0  0  0  0  0  0  0  0  0
   -4.3720   13.8290   17.4850 H   0  0  0  0  0  0  0  0  0  0  0  0
   -2.1960   14.8930   17.3840 H   0  0  0  0  0  0  0  0  0  0  0  0
   -2.1960   15.1130   19.1130 H   0  0  0  0  0  0  0  0  0  0  0  0
   -2.8910   17.1860   18.5910 H   0  0  0  0  0  0  0  0  0  0  0  0
   -4.4650   16.4460   18.6940 H   0  0  0  0  0  0  0  0  0  0  0  0
   -4.3660   16.0390   16.1980 H   0  0  0  0  0  0  0  0  0  0  0  0
   -2.8250   16.8960   16.1510 H   0  0  0  0  0  0  0  0  0  0  0  0
   -3.9940   18.8780   17.3100 H   0  0  0  0  0  0  0  0  0  0  0  0
   -5.4940   18.0080   17.1130 H   0  0  0  0  0  0  0  0  0  0  0  0
   -3.7550   19.2930   15.0600 H   0  0  0  0  0  0  0  0  0  0  0  0
   -5.4440   19.4690   15.2450 H   0  0  0  0  0  0  0  0  0  0  0  0
   -5.0710   18.0800   13.2620 H   0  0  0  0  0  0  0  0  0  0  0  0
   -3.9120   17.0560   14.1250 H   0  0  0  0  0  0  0  0  0  0  0  0
   -5.6260   16.9980   14.4790 H   0  0  0  0  0  0  0  0  0  0  0  0
  1  2  2  0  0  0  0
  1  3  1  0  0  0  0
  4  5  1  0  0  0  0
  4  1  1  0  0  0  0
  5 23  1  0  0  0  0
  5 24  1  0  0  0  0
  6  5  1  0  0  0  0
  6  7  1  0  0  0  0
  7 28  1  0  0  0  0
  7 27  1  0  0  0  0
  8 29  1  0  0  0  0
  8  7  1  0  0  0  0
  9 32  1  0  0  0  0
  9  8  1  0  0  0  0
 10  9  1  0  0  0  0
 10 33  1  0  0  0  0
 11 10  1  0  0  0  0
 11 36  1  0  0  0  0
 12 13  1  0  0  0  0
 12 11  1  0  0  0  0
 12 37  1  0  0  0  0
 13 40  1  0  0  0  0
 14 13  1  0  0  0  0
 14 41  1  0  0  0  0
 15 14  1  0  0  0  0
 15 44  1  0  0  0  0
 16 15  1  0  0  0  0
 16 45  1  0  0  0  0
 16 46  1  0  0  0  0
 17 18  1  0  0  0  0
 17 16  1  0  0  0  0
 18 50  1  0  0  0  0
 18 49  1  0  0  0  0
 19 18  1  0  0  0  0
 20 55  1  0  0  0  0
 20 19  1  0  0  0  0
 21  4  1  0  0  0  0
 22  4  1  0  0  0  0
 25  6  1  0  0  0  0
 26  6  1  0  0  0  0
 30  8  1  0  0  0  0
 31  9  1  0  0  0  0
 34 10  1  0  0  0  0
 35 11  1  0  0  0  0
 38 12  1  0  0  0  0
 39 13  1  0  0  0  0
 42 14  1  0  0  0  0
 43 15  1  0  0  0  0
 47 17  1  0  0  0  0
 48 17  1  0  0  0  0
 51 19  1  0  0  0  0
 52 19  1  0  0  0  0
 53 20  1  0  0  0  0
 54 20  1  0  0  0  0
M  CHG  1   3  -1
M  END
$$$$
