2brb_ligand_rnum.pdb
 OpenBabel02151809393D

 42 45  0  0  1  0  0  0  0  0999 V2000
   14.3110    0.2600    9.6510 C   0  0  0  0  0  0  0  0  0  0  0  0
   18.3220   -1.7000    9.2930 C   0  0  0  0  0  0  0  0  0  0  0  0
   19.6470   -1.9520    8.9490 C   0  0  0  0  0  0  0  0  0  0  0  0
   20.3240   -3.1340    9.2430 C   0  0  0  0  0  0  0  0  0  0  0  0
   21.6530   -3.2690    8.8360 C   0  0  0  0  0  0  0  0  0  0  0  0
   22.2900   -2.2420    8.1380 C   0  0  0  0  0  0  0  0  0  0  0  0
   21.6140   -1.0560    7.8470 C   0  0  0  0  0  0  0  0  0  0  0  0
   20.2910   -0.9400    8.2410 C   0  0  0  0  0  0  0  0  0  0  0  0
   16.9690   -4.8120   10.0740 C   0  0  0  0  0  0  0  0  0  0  0  0
   17.0350   -6.0670   10.6850 C   0  0  0  0  0  0  0  0  0  0  0  0
   17.6450   -6.1780   11.9360 C   0  0  0  0  0  0  0  0  0  0  0  0
   18.1740   -5.0270   12.5490 C   0  0  0  0  0  0  0  0  0  0  0  0
   15.5150    0.4240    9.1270 N   0  0  0  0  0  0  0  0  0  0  0  0
   16.4650   -0.5070    9.2980 C   0  0  0  0  0  0  0  0  0  0  0  0
   17.7520   -0.5450    8.8630 O   0  0  0  0  0  0  0  0  0  0  0  0
   16.2030   -1.6630   10.0320 C   0  0  2  0  0  0  0  0  0  0  0  0
   14.5520   -2.8610   11.2950 N   0  0  0  0  0  0  0  0  0  0  0  0
   14.9180   -1.7990   10.5690 C   0  0  0  0  0  0  0  0  0  0  0  0
   14.0200   -0.8210   10.3510 N   0  0  0  0  0  0  0  0  0  0  0  0
   18.1030   -3.7740   11.9320 C   0  0  0  0  0  0  0  0  0  0  0  0
   17.3790   -2.4230   10.0340 C   0  0  0  0  0  0  0  0  0  0  0  0
   17.5000   -3.6660   10.6770 C   0  0  0  0  0  0  0  0  0  0  0  0
   12.6900   -2.5010   12.8800 C   0  0  0  0  0  0  0  0  0  0  0  0
   13.1250   -3.1390   11.5520 C   0  0  0  0  0  0  0  0  0  0  0  0
   12.1850   -1.1800   12.6450 O   0  0  0  0  0  0  0  0  0  0  0  0
   13.5090    0.9580    9.5510 H   0  0  0  0  0  0  0  0  0  0  0  0
   19.8610   -3.9540    9.7670 H   0  0  0  0  0  0  0  0  0  0  0  0
   22.1880   -4.1810    9.0560 H   0  0  0  0  0  0  0  0  0  0  0  0
   23.3160   -2.3630    7.8250 H   0  0  0  0  0  0  0  0  0  0  0  0
   22.0970   -0.2660    7.2910 H   0  0  0  0  0  0  0  0  0  0  0  0
   19.7710   -0.0650    7.9010 H   0  0  0  0  0  0  0  0  0  0  0  0
   16.4570   -4.7120    9.1310 H   0  0  0  0  0  0  0  0  0  0  0  0
   16.6090   -6.9370   10.2090 H   0  0  0  0  0  0  0  0  0  0  0  0
   17.7000   -7.1350   12.4340 H   0  0  0  0  0  0  0  0  0  0  0  0
   18.5990   -5.1330   13.5210 H   0  0  0  0  0  0  0  0  0  0  0  0
   15.2190   -3.6090   11.4250 H   0  0  0  0  0  0  0  0  0  0  0  0
   18.5060   -2.9040   12.4290 H   0  0  0  0  0  0  0  0  0  0  0  0
   13.5030   -2.4750   13.6070 H   0  0  0  0  0  0  0  0  0  0  0  0
   11.8840   -3.0830   13.3270 H   0  0  0  0  0  0  0  0  0  0  0  0
   13.0200   -4.2140   11.6660 H   0  0  0  0  0  0  0  0  0  0  0  0
   12.4780   -2.8550   10.7200 H   0  0  0  0  0  0  0  0  0  0  0  0
   12.8010   -0.7350   12.0780 H   0  0  0  0  0  0  0  0  0  0  0  0
  1 19  1  0  0  0  0
  2 21  2  0  0  0  0
  3  4  1  0  0  0  0
  3  2  1  0  0  0  0
  4 27  1  0  0  0  0
  5 28  1  0  0  0  0
  5  4  2  0  0  0  0
  6  5  1  0  0  0  0
  7  6  2  0  0  0  0
  7  8  1  0  0  0  0
  8  3  2  0  0  0  0
  9 22  2  0  0  0  0
  9 10  1  0  0  0  0
 10 11  2  0  0  0  0
 11 34  1  0  0  0  0
 11 12  1  0  0  0  0
 12 35  1  0  0  0  0
 13 14  2  0  0  0  0
 13  1  2  0  0  0  0
 15  2  1  0  0  0  0
 15 14  1  0  0  0  0
 16 14  1  1  0  0  0
 16 21  1  0  0  0  0
 16 18  1  0  0  0  0
 17 36  1  0  0  0  0
 17 24  1  0  0  0  0
 18 17  1  0  0  0  0
 19 18  2  0  0  0  0
 20 37  1  0  0  0  0
 20 12  2  0  0  0  0
 21 22  1  0  0  0  0
 22 20  1  0  0  0  0
 23 39  1  0  0  0  0
 23 38  1  0  0  0  0
 24 40  1  0  0  0  0
 24 23  1  0  0  0  0
 25 23  1  0  0  0  0
 26  1  1  0  0  0  0
 29  6  1  0  0  0  0
 30  7  1  0  0  0  0
 31  8  1  0  0  0  0
 32  9  1  0  0  0  0
 33 10  1  0  0  0  0
 41 24  1  0  0  0  0
 42 25  1  0  0  0  0
M  END
$$$$
