2fvd_ligand_rnum.pdb
 OpenBabel02151809393D

 51 53  0  0  0  0  0  0  0  0999 V2000
    6.0060   26.4970    6.9800 N   0  0  0  0  0  0  0  0  0  0  0  0
    5.2280   26.2350    5.7370 C   0  0  0  0  0  0  0  0  0  0  0  0
    4.4250   27.4970    5.3560 C   0  0  0  0  0  0  0  0  0  0  0  0
    3.4740   27.9120    6.5080 C   0  0  0  0  0  0  0  0  0  0  0  0
    4.2630   28.0220    7.8590 C   0  0  0  0  0  0  0  0  0  0  0  0
    5.0840   26.7430    8.1290 C   0  0  0  0  0  0  0  0  0  0  0  0
    2.8530   29.1930    6.1450 N   0  0  0  0  0  0  0  0  0  0  0  0
    1.7690   29.5320    6.9000 C   0  0  0  0  0  0  0  0  0  0  0  0
    1.0690   28.5960    7.5970 N   0  0  0  0  0  0  0  0  0  0  0  0
    0.0490   28.9490    8.3170 C   0  0  0  0  0  0  0  0  0  0  0  0
   -0.4000   30.3250    8.4220 C   0  0  0  0  0  0  0  0  0  0  0  0
    0.3640   31.2870    7.6590 C   0  0  0  0  0  0  0  0  0  0  0  0
    1.4370   30.8560    6.9140 N   0  0  0  0  0  0  0  0  0  0  0  0
   -1.5430   30.6550    9.2600 C   0  0  0  0  0  0  0  0  0  0  0  0
   -1.9700   31.8210    9.3190 O   0  0  0  0  0  0  0  0  0  0  0  0
   -2.1970   29.6470   10.0640 C   0  0  0  0  0  0  0  0  0  0  0  0
   -3.5480   29.2590    9.7500 C   0  0  0  0  0  0  0  0  0  0  0  0
   -4.2120   28.2570   10.5240 C   0  0  0  0  0  0  0  0  0  0  0  0
   -3.5480   27.6250   11.6160 C   0  0  0  0  0  0  0  0  0  0  0  0
   -2.2140   27.9920   11.9500 C   0  0  0  0  0  0  0  0  0  0  0  0
   -1.5100   29.0040   11.1890 C   0  0  0  0  0  0  0  0  0  0  0  0
   -0.1880   29.4010   11.4900 O   0  0  0  0  0  0  0  0  0  0  0  0
    0.5550   28.3980   12.2270 C   0  0  0  0  0  0  0  0  0  0  0  0
   -4.2020   29.8250    8.7400 F   0  0  0  0  0  0  0  0  0  0  0  0
   -5.4500   27.9070   10.2290 F   0  0  0  0  0  0  0  0  0  0  0  0
    0.0830   32.6030    7.6390 N   0  0  0  0  0  0  0  0  0  0  0  0
    7.0630   25.2110    7.3100 S   0  0  0  0  0  0  0  0  0  0  0  0
    6.1790   23.6620    7.7100 C   0  0  0  0  0  0  0  0  0  0  0  0
    7.8710   25.5860    8.4490 O   0  0  0  0  0  0  0  0  0  0  0  0
    7.9110   25.0020    6.1680 O   0  0  0  0  0  0  0  0  0  0  0  0
    4.5620   25.3830    5.8790 H   0  0  0  0  0  0  0  0  0  0  0  0
    5.9050   25.9860    4.9200 H   0  0  0  0  0  0  0  0  0  0  0  0
    3.8530   27.3130    4.4460 H   0  0  0  0  0  0  0  0  0  0  0  0
    5.1200   28.3060    5.1290 H   0  0  0  0  0  0  0  0  0  0  0  0
    2.7330   27.1220    6.5970 H   0  0  0  0  0  0  0  0  0  0  0  0
    3.5830   28.1990    8.6920 H   0  0  0  0  0  0  0  0  0  0  0  0
    4.9400   28.8780    7.8220 H   0  0  0  0  0  0  0  0  0  0  0  0
    5.6610   26.8680    9.0420 H   0  0  0  0  0  0  0  0  0  0  0  0
    4.4230   25.8890    8.2770 H   0  0  0  0  0  0  0  0  0  0  0  0
    3.4530   29.9490    5.8340 H   0  0  0  0  0  0  0  0  0  0  0  0
   -0.4470   28.1380    8.8280 H   0  0  0  0  0  0  0  0  0  0  0  0
   -4.0610   26.8730   12.1980 H   0  0  0  0  0  0  0  0  0  0  0  0
   -1.7610   27.4960   12.7940 H   0  0  0  0  0  0  0  0  0  0  0  0
    1.5920   28.7230   12.2430 H   0  0  0  0  0  0  0  0  0  0  0  0
    0.2110   28.3320   13.2530 H   0  0  0  0  0  0  0  0  0  0  0  0
    0.5150   27.4160   11.7530 H   0  0  0  0  0  0  0  0  0  0  0  0
    0.5740   33.2570    7.0430 H   0  0  0  0  0  0  0  0  0  0  0  0
   -0.7160   32.9630    8.1430 H   0  0  0  0  0  0  0  0  0  0  0  0
    6.9060   22.8760    7.9080 H   0  0  0  0  0  0  0  0  0  0  0  0
    5.5690   23.8110    8.6010 H   0  0  0  0  0  0  0  0  0  0  0  0
    5.5460   23.3690    6.8740 H   0  0  0  0  0  0  0  0  0  0  0  0
  1 27  1  0  0  0  0
  1  6  1  0  0  0  0
  2 31  1  0  0  0  0
  2  1  1  0  0  0  0
  3  2  1  0  0  0  0
  3  4  1  0  0  0  0
  4 35  1  0  0  0  0
  4  5  1  0  0  0  0
  5  6  1  0  0  0  0
  5 36  1  0  0  0  0
  6 39  1  0  0  0  0
  6 38  1  0  0  0  0
  7  4  1  0  0  0  0
  7  8  1  0  0  0  0
  8 13  1  0  0  0  0
  8  9  2  0  0  0  0
  9 10  1  0  0  0  0
 10 11  2  0  0  0  0
 10 41  1  0  0  0  0
 11 14  1  0  0  0  0
 12 11  1  0  0  0  0
 13 12  2  0  0  0  0
 14 15  2  0  0  0  0
 14 16  1  0  0  0  0
 16 21  1  0  0  0  0
 17 16  2  0  0  0  0
 17 18  1  0  0  0  0
 18 19  2  0  0  0  0
 19 20  1  0  0  0  0
 19 42  1  0  0  0  0
 20 43  1  0  0  0  0
 21 22  1  0  0  0  0
 21 20  2  0  0  0  0
 22 23  1  0  0  0  0
 23 44  1  0  0  0  0
 23 45  1  0  0  0  0
 24 17  1  0  0  0  0
 25 18  1  0  0  0  0
 26 12  1  0  0  0  0
 26 48  1  0  0  0  0
 27 28  1  0  0  0  0
 27 29  2  0  0  0  0
 28 49  1  0  0  0  0
 28 50  1  0  0  0  0
 30 27  2  0  0  0  0
 32  2  1  0  0  0  0
 33  3  1  0  0  0  0
 34  3  1  0  0  0  0
 37  5  1  0  0  0  0
 40  7  1  0  0  0  0
 46 23  1  0  0  0  0
 47 26  1  0  0  0  0
 51 28  1  0  0  0  0
M  END
$$$$
