3coy_ligand_rnum.pdb
 OpenBabel02151809393D

 57 59  0  0  1  0  0  0  0  0999 V2000
   15.9780    9.7850    5.1690 C   0  0  0  0  0  0  0  0  0  0  0  0
   12.9040    9.1740   -4.7500 C   0  0  0  0  0  0  0  0  0  0  0  0
   15.9780    9.3600    6.6230 C   0  0  1  0  0  0  0  0  0  0  0  0
   14.0430    9.9190   -2.8510 C   0  0  0  0  0  0  0  0  0  0  0  0
   15.0840   10.4280   -3.6300 C   0  0  0  0  0  0  0  0  0  0  0  0
   14.9950   10.2820   -5.0020 C   0  0  2  0  0  0  0  0  0  0  0  0
   14.6110    9.3010    7.3270 C   0  0  0  0  0  0  0  0  0  0  0  0
   13.8950    9.6540   -5.5200 N   0  0  0  0  0  0  0  0  0  0  0  0
   16.0410   11.1200    4.9100 N   0  0  0  0  0  0  0  0  0  0  0  0
   15.9810    8.9220    4.2910 O   0  0  0  0  0  0  0  0  0  0  0  0
   15.5520   10.8080   -1.5320 C   0  0  0  0  0  0  0  0  0  0  0  0
   14.3440    7.4730    0.0010 O   0  0  0  0  0  0  0  0  0  0  0  0
   12.9630    9.2950   -3.4200 N   0  0  0  0  0  0  0  0  0  0  0  0
   13.6750    8.3350    6.6490 C   0  0  0  0  0  0  0  0  0  0  0  0
   14.8150    8.7990    8.7460 C   0  0  0  0  0  0  0  0  0  0  0  0
   13.9180   10.6620    7.4310 C   0  0  0  0  0  0  0  0  0  0  0  0
   16.7390    8.0470    6.8430 N   0  3  0  0  0  0  0  0  0  0  0  0
   16.1190   11.7770    3.5160 S   0  0  0  0  0  0  0  0  0  0  0  0
   17.3970   11.5100    2.9350 O   0  0  0  0  0  0  0  0  0  0  0  0
   15.8100   13.1830    3.5890 O   0  0  0  0  0  0  0  0  0  0  0  0
   15.0660   11.1550    2.4350 O   0  0  0  0  0  0  0  0  0  0  0  0
   13.6620   11.3080    2.6870 C   0  0  0  0  0  0  0  0  0  0  0  0
   12.9450   10.3860    1.7260 C   0  0  2  0  0  0  0  0  0  0  0  0
   13.5110    8.9740    1.7970 C   0  0  1  0  0  0  0  0  0  0  0  0
   12.4460    8.0410    1.8130 O   0  0  0  0  0  0  0  0  0  0  0  0
   14.2850    8.8210    0.4980 C   0  0  2  0  0  0  0  0  0  0  0  0
   13.5160    9.7630   -0.4270 C   0  0  1  0  0  0  0  0  0  0  0  0
   13.1860   10.8710    0.3920 O   0  0  0  0  0  0  0  0  0  0  0  0
   14.3640   10.1590   -1.5780 N   0  0  0  0  0  0  0  0  0  0  0  0
   16.0070   10.9830   -2.8040 N   0  0  0  0  0  0  0  0  0  0  0  0
   15.9960   10.7380   -5.8040 N   0  0  0  0  0  0  0  0  0  0  0  0
   12.0460    8.6980   -5.1980 H   0  0  0  0  0  0  0  0  0  0  0  0
   16.5800   10.0960    7.1550 H   0  0  0  0  0  0  0  0  0  0  0  0
   15.9110   11.8060    5.6510 H   0  0  0  0  0  0  0  0  0  0  0  0
   16.0550   11.1430   -0.6360 H   0  0  0  0  0  0  0  0  0  0  0  0
   15.2580    7.2090    0.0290 H   0  0  0  0  0  0  0  0  0  0  0  0
   12.7390    8.2810    7.2070 H   0  0  0  0  0  0  0  0  0  0  0  0
   13.4260    8.6410    5.6320 H   0  0  0  0  0  0  0  0  0  0  0  0
   14.0900    7.3280    6.6060 H   0  0  0  0  0  0  0  0  0  0  0  0
   13.8850    8.8360    9.3160 H   0  0  0  0  0  0  0  0  0  0  0  0
   15.1530    7.7650    8.8020 H   0  0  0  0  0  0  0  0  0  0  0  0
   15.5360    9.4120    9.2880 H   0  0  0  0  0  0  0  0  0  0  0  0
   12.9860   10.6040    7.9950 H   0  0  0  0  0  0  0  0  0  0  0  0
   14.5500   11.3980    7.9290 H   0  0  0  0  0  0  0  0  0  0  0  0
   13.6690   11.0560    6.4470 H   0  0  0  0  0  0  0  0  0  0  0  0
   16.7330    7.7990    7.8220 H   0  0  0  0  0  0  0  0  0  0  0  0
   16.2910    7.3020    6.3200 H   0  0  0  0  0  0  0  0  0  0  0  0
   17.6870    8.1380    6.5070 H   0  0  0  0  0  0  0  0  0  0  0  0
   13.3160   12.3370    2.6580 H   0  0  0  0  0  0  0  0  0  0  0  0
   13.4700   10.9610    3.7010 H   0  0  0  0  0  0  0  0  0  0  0  0
   11.8770   10.4090    1.9440 H   0  0  0  0  0  0  0  0  0  0  0  0
   14.1240    8.7820    2.6720 H   0  0  0  0  0  0  0  0  0  0  0  0
   11.9210    8.1990    2.5840 H   0  0  0  0  0  0  0  0  0  0  0  0
   15.2940    9.2050    0.6430 H   0  0  0  0  0  0  0  0  0  0  0  0
   12.6140    9.3160   -0.8380 H   0  0  0  0  0  0  0  0  0  0  0  0
   15.9190   10.6590   -6.8100 H   0  0  0  0  0  0  0  0  0  0  0  0
   16.8370   11.1300   -5.3930 H   0  0  0  0  0  0  0  0  0  0  0  0
  1  3  1  0  0  0  0
  2 13  1  0  0  0  0
  3 17  1  0  0  0  0
  3 33  1  1  0  0  0
  3  7  1  0  0  0  0
  4 29  1  0  0  0  0
  5  4  2  0  0  0  0
  5 30  1  0  0  0  0
  6 31  1  1  0  0  0
  6  5  1  0  0  0  0
  7 16  1  0  0  0  0
  7 15  1  0  0  0  0
  8  6  1  0  0  0  0
  8  2  2  0  0  0  0
  9  1  1  0  0  0  0
  9 34  1  0  0  0  0
 10  1  2  0  0  0  0
 11 35  1  0  0  0  0
 12 36  1  0  0  0  0
 12 26  1  0  0  0  0
 13  4  1  0  0  0  0
 14 37  1  0  0  0  0
 14  7  1  0  0  0  0
 15 41  1  0  0  0  0
 15 42  1  0  0  0  0
 15 40  1  0  0  0  0
 16 44  1  0  0  0  0
 16 43  1  0  0  0  0
 17 46  1  0  0  0  0
 18 20  1  0  0  0  0
 18  9  1  0  0  0  0
 19 18  1  0  0  0  0
 21 22  1  0  0  0  0
 21 18  1  0  0  0  0
 22 50  1  0  0  0  0
 23 24  1  1  0  0  0
 23 51  1  0  0  0  0
 23 22  1  0  0  0  0
 24 26  1  6  0  0  0
 24 25  1  0  0  0  0
 24 52  1  0  0  0  0
 25 53  1  0  0  0  0
 26 27  1  6  0  0  0
 26 54  1  0  0  0  0
 27 55  1  6  0  0  0
 27 28  1  0  0  0  0
 28 23  1  0  0  0  0
 29 11  1  0  0  0  0
 29 27  1  0  0  0  0
 30 11  2  0  0  0  0
 31 57  1  0  0  0  0
 32  2  1  0  0  0  0
 38 14  1  0  0  0  0
 39 14  1  0  0  0  0
 45 16  1  0  0  0  0
 47 17  1  0  0  0  0
 48 17  1  0  0  0  0
 49 22  1  0  0  0  0
 56 31  1  0  0  0  0
M  CHG  1  17   1
M  END
$$$$
