3s8o_ligand_rnum.pdb
 OpenBabel02151809393D

 67 68  0  0  1  0  0  0  0  0999 V2000
    7.4160   -7.5660   -2.4020 C   0  0  0  0  0  0  0  0  0  0  0  0
    6.9010   -8.6890   -2.4580 O   0  0  0  0  0  0  0  0  0  0  0  0
    7.2330   -6.5760   -3.5800 C   0  0  0  0  0  0  0  0  0  0  0  0
    8.1320   -7.1190   -1.3550 N   0  0  0  0  0  0  0  0  0  0  0  0
    8.3970   -8.0000   -0.1860 C   0  0  2  0  0  0  0  0  0  0  0  0
    8.0150   -7.2410    1.0770 C   0  0  0  0  0  0  0  0  0  0  0  0
    8.3060   -6.0610    1.2030 O   0  0  0  0  0  0  0  0  0  0  0  0
    9.9270   -8.3530   -0.1620 C   0  0  0  0  0  0  0  0  0  0  0  0
   10.3270   -9.0670   -1.4490 C   0  0  0  0  0  0  0  0  0  0  0  0
   10.8070   -8.3000   -2.4940 C   0  0  0  0  0  0  0  0  0  0  0  0
   10.1600  -10.4760   -1.5620 C   0  0  0  0  0  0  0  0  0  0  0  0
   11.0870   -8.9320   -3.7060 C   0  0  0  0  0  0  0  0  0  0  0  0
   10.4280  -11.1040   -2.8020 C   0  0  0  0  0  0  0  0  0  0  0  0
   10.9170  -10.3270   -3.8420 C   0  0  0  0  0  0  0  0  0  0  0  0
   11.2410  -10.7770   -5.1030 O   0  0  0  0  0  0  0  0  0  0  0  0
   10.9680  -12.3220   -5.6220 P   0  0  0  0  0  0  0  0  0  0  0  0
   11.1130  -12.1800   -7.1870 O   0  0  0  0  0  0  0  0  0  0  0  0
   11.9680  -13.2660   -5.1080 O   0  5  0  0  0  0  0  0  0  0  0  0
    9.5570  -12.6400   -5.3080 O   0  5  0  0  0  0  0  0  0  0  0  0
    7.9630   -5.6880    4.7190 O   0  0  0  0  0  0  0  0  0  0  0  0
    3.9170   -8.1020    3.2880 C   0  0  0  0  0  0  0  0  0  0  0  0
    5.0380   -9.1390    3.5640 C   0  0  0  0  0  0  0  0  0  0  0  0
    4.4520   -7.0180    2.3330 C   0  0  0  0  0  0  0  0  0  0  0  0
    6.3240   -8.4900    4.1740 C   0  0  0  0  0  0  0  0  0  0  0  0
    5.7540   -6.3990    2.8750 C   0  0  0  0  0  0  0  0  0  0  0  0
    7.3640   -7.9490    1.9910 N   0  0  0  0  0  0  0  0  0  0  0  0
    8.0740   -6.7300    4.0040 C   0  0  0  0  0  0  0  0  0  0  0  0
    6.8760   -7.3850    3.2550 C   0  0  0  0  0  0  0  0  0  0  0  0
    9.2200   -7.4430    3.9360 N   0  0  0  0  0  0  0  0  0  0  0  0
   10.4330   -7.0030    4.6420 C   0  0  2  0  0  0  0  0  0  0  0  0
   11.4430   -6.3300    3.7180 C   0  0  0  0  0  0  0  0  0  0  0  0
   12.6020   -6.2120    4.0730 O   0  0  0  0  0  0  0  0  0  0  0  0
   11.0340   -8.2050    5.4240 C   0  0  0  0  0  0  0  0  0  0  0  0
   11.5690   -9.3040    4.4620 C   0  0  0  0  0  0  0  0  0  0  0  0
   11.1160   -9.3850    3.2960 O   0  0  0  0  0  0  0  0  0  0  0  0
   12.5000  -10.0960    4.9730 N   0  0  0  0  0  0  0  0  0  0  0  0
   10.9980   -5.7770    2.6080 N   0  0  0  0  0  0  0  0  0  0  0  0
    7.8340   -5.6770   -3.4440 H   0  0  0  0  0  0  0  0  0  0  0  0
    7.5340   -7.0480   -4.5160 H   0  0  0  0  0  0  0  0  0  0  0  0
    6.1870   -6.2810   -3.6640 H   0  0  0  0  0  0  0  0  0  0  0  0
    8.5020   -6.1800   -1.3480 H   0  0  0  0  0  0  0  0  0  0  0  0
    7.8140   -8.9120   -0.2540 H   0  0  0  0  0  0  0  0  0  0  0  0
   10.1390   -9.0050    0.6860 H   0  0  0  0  0  0  0  0  0  0  0  0
   10.5380   -7.4580   -0.0280 H   0  0  0  0  0  0  0  0  0  0  0  0
   10.9310   -7.2320   -2.3950 H   0  0  0  0  0  0  0  0  0  0  0  0
    9.7850  -11.0550   -0.7320 H   0  0  0  0  0  0  0  0  0  0  0  0
   11.4490   -8.3520   -4.5420 H   0  0  0  0  0  0  0  0  0  0  0  0
   10.2870  -12.1700   -2.8980 H   0  0  0  0  0  0  0  0  0  0  0  0
    3.5920   -7.6490    4.2260 H   0  0  0  0  0  0  0  0  0  0  0  0
    3.0450   -8.5930    2.8550 H   0  0  0  0  0  0  0  0  0  0  0  0
    5.2840   -9.6700    2.6440 H   0  0  0  0  0  0  0  0  0  0  0  0
    4.6580   -9.8910    4.2530 H   0  0  0  0  0  0  0  0  0  0  0  0
    3.6990   -6.2420    2.1910 H   0  0  0  0  0  0  0  0  0  0  0  0
    4.6350   -7.4540    1.3500 H   0  0  0  0  0  0  0  0  0  0  0  0
    7.0860   -9.2520    4.3080 H   0  0  0  0  0  0  0  0  0  0  0  0
    6.0930   -8.0920    5.1640 H   0  0  0  0  0  0  0  0  0  0  0  0
    5.4790   -5.8510    3.7770 H   0  0  0  0  0  0  0  0  0  0  0  0
    6.0870   -5.6190    2.1920 H   0  0  0  0  0  0  0  0  0  0  0  0
    7.1750   -8.9270    1.8060 H   0  0  0  0  0  0  0  0  0  0  0  0
    9.2620   -8.2900    3.3870 H   0  0  0  0  0  0  0  0  0  0  0  0
   10.1980   -6.2500    5.3930 H   0  0  0  0  0  0  0  0  0  0  0  0
   10.2800   -8.6560    6.0680 H   0  0  0  0  0  0  0  0  0  0  0  0
   11.8390   -7.8670    6.0790 H   0  0  0  0  0  0  0  0  0  0  0  0
   12.8940  -10.8470    4.4160 H   0  0  0  0  0  0  0  0  0  0  0  0
   12.8300   -9.9420    5.9190 H   0  0  0  0  0  0  0  0  0  0  0  0
   11.6280   -5.2590    2.0150 H   0  0  0  0  0  0  0  0  0  0  0  0
   10.0170   -5.8490    2.3690 H   0  0  0  0  0  0  0  0  0  0  0  0
  1  4  1  0  0  0  0
  2  1  2  0  0  0  0
  3 38  1  0  0  0  0
  3  1  1  0  0  0  0
  4 41  1  0  0  0  0
  4  5  1  0  0  0  0
  5 42  1  6  0  0  0
  5  8  1  0  0  0  0
  5  6  1  0  0  0  0
  6  7  2  0  0  0  0
  6 26  1  0  0  0  0
  8 44  1  0  0  0  0
  8 43  1  0  0  0  0
  9  8  1  0  0  0  0
 10 45  1  0  0  0  0
 10  9  2  0  0  0  0
 11  9  1  0  0  0  0
 11 46  1  0  0  0  0
 12 10  1  0  0  0  0
 13 11  2  0  0  0  0
 14 12  2  0  0  0  0
 14 13  1  0  0  0  0
 15 14  1  0  0  0  0
 16 19  1  0  0  0  0
 16 18  1  0  0  0  0
 16 15  1  0  0  0  0
 17 16  2  0  0  0  0
 21 22  1  0  0  0  0
 21 49  1  0  0  0  0
 22 24  1  0  0  0  0
 22 52  1  0  0  0  0
 23 25  1  0  0  0  0
 23 21  1  0  0  0  0
 24 55  1  0  0  0  0
 24 56  1  0  0  0  0
 25 28  1  0  0  0  0
 25 57  1  0  0  0  0
 26 28  1  0  0  0  0
 27 20  2  0  0  0  0
 28 27  1  0  0  0  0
 28 24  1  0  0  0  0
 29 27  1  0  0  0  0
 29 30  1  0  0  0  0
 30 61  1  1  0  0  0
 30 33  1  0  0  0  0
 31 32  2  0  0  0  0
 31 30  1  0  0  0  0
 33 62  1  0  0  0  0
 33 63  1  0  0  0  0
 34 36  1  0  0  0  0
 34 33  1  0  0  0  0
 35 34  2  0  0  0  0
 36 65  1  0  0  0  0
 37 31  1  0  0  0  0
 39  3  1  0  0  0  0
 40  3  1  0  0  0  0
 47 12  1  0  0  0  0
 48 13  1  0  0  0  0
 50 21  1  0  0  0  0
 51 22  1  0  0  0  0
 53 23  1  0  0  0  0
 54 23  1  0  0  0  0
 58 25  1  0  0  0  0
 59 26  1  0  0  0  0
 60 29  1  0  0  0  0
 64 36  1  0  0  0  0
 66 37  1  0  0  0  0
 67 37  1  0  0  0  0
M  CHG  2  18  -1  19  -1
M  END
$$$$
