2ole_ligand_rnum.pdb
 OpenBabel02151809393D

 57 59  0  0  1  0  0  0  0  0999 V2000
   -5.4750    1.1060   -6.2450 C   0  0  0  0  0  0  0  0  0  0  0  0
   -5.9740    0.5210   -5.0840 C   0  0  0  0  0  0  0  0  0  0  0  0
   -5.3750    0.7910   -3.8550 C   0  0  0  0  0  0  0  0  0  0  0  0
   -4.2710    1.6380   -3.7920 C   0  0  0  0  0  0  0  0  0  0  0  0
   -3.7700    2.2190   -4.9540 C   0  0  0  0  0  0  0  0  0  0  0  0
   -4.3790    1.9630   -6.1800 C   0  0  0  0  0  0  0  0  0  0  0  0
   -4.0080    2.8210   -7.3950 C   0  0  2  0  0  0  0  0  0  0  0  0
   -2.5800    2.8910   -7.4840 O   0  0  0  0  0  0  0  0  0  0  0  0
   -4.5980    4.1320   -7.0760 N   0  0  0  0  0  0  0  0  0  0  0  0
   -5.3410    4.6290   -8.2460 C   0  0  0  0  0  0  0  0  0  0  0  0
   -5.0780    6.0960   -8.5930 C   0  0  0  0  0  0  0  0  0  0  0  0
   -3.6960    6.3320   -9.2070 C   0  0  0  0  0  0  0  0  0  0  0  0
   -2.5940    6.5150   -8.1580 C   0  0  0  0  0  0  0  0  0  0  0  0
   -2.3730    5.2730   -7.2870 C   0  0  0  0  0  0  0  0  0  0  0  0
   -3.6160    4.9300   -6.5750 N   0  0  0  0  0  0  0  0  0  0  0  0
   -3.9800    5.6090   -5.4930 C   0  0  0  0  0  0  0  0  0  0  0  0
   -5.2630    5.6880   -5.0560 O   0  0  0  0  0  0  0  0  0  0  0  0
   -2.9320    6.4220   -4.7380 C   0  0  0  0  0  0  0  0  0  0  0  0
   -3.3090    6.5330   -3.2610 C   0  0  2  0  0  0  0  0  0  0  0  0
   -2.5420    7.6660   -2.7260 N   0  3  0  0  0  0  0  0  0  0  0  0
   -2.8660    5.3930   -2.3450 C   0  0  0  0  0  0  0  0  0  0  0  0
   -3.4910    5.1700   -1.1220 C   0  0  0  0  0  0  0  0  0  0  0  0
   -4.5280    5.9890   -0.7030 C   0  0  0  0  0  0  0  0  0  0  0  0
   -5.0210    5.9430    0.5990 C   0  0  0  0  0  0  0  0  0  0  0  0
   -6.1310    6.6440    0.8930 F   0  0  0  0  0  0  0  0  0  0  0  0
   -4.4370    5.0680    1.5100 C   0  0  0  0  0  0  0  0  0  0  0  0
   -4.6000    5.2210    2.8390 F   0  0  0  0  0  0  0  0  0  0  0  0
   -3.4590    4.1870    1.0700 C   0  0  0  0  0  0  0  0  0  0  0  0
   -2.9900    4.2170   -0.2390 C   0  0  0  0  0  0  0  0  0  0  0  0
   -1.9950    3.3780   -0.5720 F   0  0  0  0  0  0  0  0  0  0  0  0
   -5.9760    0.9340   -7.1860 H   0  0  0  0  0  0  0  0  0  0  0  0
   -6.8360   -0.1280   -5.1330 H   0  0  0  0  0  0  0  0  0  0  0  0
   -5.7690    0.3490   -2.9520 H   0  0  0  0  0  0  0  0  0  0  0  0
   -3.8120    1.8560   -2.8390 H   0  0  0  0  0  0  0  0  0  0  0  0
   -2.9350    2.8990   -4.8760 H   0  0  0  0  0  0  0  0  0  0  0  0
   -4.4320    2.3590   -8.2870 H   0  0  0  0  0  0  0  0  0  0  0  0
   -2.2780    3.4960   -6.8250 H   0  0  0  0  0  0  0  0  0  0  0  0
   -6.4030    4.4840   -8.0460 H   0  0  0  0  0  0  0  0  0  0  0  0
   -5.1250    4.0390   -9.1370 H   0  0  0  0  0  0  0  0  0  0  0  0
   -5.2460    6.7500   -7.7450 H   0  0  0  0  0  0  0  0  0  0  0  0
   -5.7900    6.3390   -9.3700 H   0  0  0  0  0  0  0  0  0  0  0  0
   -3.7390    7.2440   -9.8040 H   0  0  0  0  0  0  0  0  0  0  0  0
   -3.4410    5.5330   -9.9050 H   0  0  0  0  0  0  0  0  0  0  0  0
   -2.8340    7.3760   -7.5340 H   0  0  0  0  0  0  0  0  0  0  0  0
   -1.6630    6.7880   -8.6590 H   0  0  0  0  0  0  0  0  0  0  0  0
   -1.4920    5.3610   -6.6550 H   0  0  0  0  0  0  0  0  0  0  0  0
   -1.9940    4.7870   -8.1860 H   0  0  0  0  0  0  0  0  0  0  0  0
   -2.8930    7.4080   -5.2030 H   0  0  0  0  0  0  0  0  0  0  0  0
   -1.9320    5.9950   -4.7730 H   0  0  0  0  0  0  0  0  0  0  0  0
   -4.3620    6.7450   -3.1920 H   0  0  0  0  0  0  0  0  0  0  0  0
   -1.9720    7.3640   -1.9480 H   0  0  0  0  0  0  0  0  0  0  0  0
   -1.9140    8.0730   -3.4260 H   0  0  0  0  0  0  0  0  0  0  0  0
   -3.1720    8.3850   -2.4020 H   0  0  0  0  0  0  0  0  0  0  0  0
   -1.8320    5.5470   -2.0740 H   0  0  0  0  0  0  0  0  0  0  0  0
   -2.9100    4.4550   -2.9000 H   0  0  0  0  0  0  0  0  0  0  0  0
   -5.0120    6.7070   -1.3310 H   0  0  0  0  0  0  0  0  0  0  0  0
   -2.9450    3.5850    1.7970 H   0  0  0  0  0  0  0  0  0  0  0  0
  1  6  2  0  0  0  0
  1  2  1  0  0  0  0
  2  3  2  0  0  0  0
  3  4  1  0  0  0  0
  3 33  1  0  0  0  0
  4 34  1  0  0  0  0
  5 35  1  0  0  0  0
  5  4  2  0  0  0  0
  6  5  1  0  0  0  0
  7 36  1  6  0  0  0
  7  9  1  0  0  0  0
  7  6  1  0  0  0  0
  8  7  1  0  0  0  0
  8 37  1  0  0  0  0
  9 15  1  0  0  0  0
 10 38  1  0  0  0  0
 10  9  1  0  0  0  0
 11 10  1  0  0  0  0
 11 40  1  0  0  0  0
 12 11  1  0  0  0  0
 12 13  1  0  0  0  0
 13 44  1  0  0  0  0
 13 14  1  0  0  0  0
 14 46  1  0  0  0  0
 14 15  1  0  0  0  0
 15 16  1  0  0  0  0
 16 17  2  0  0  0  0
 16 18  1  0  0  0  0
 18 19  1  0  0  0  0
 19 50  1  1  0  0  0
 19 20  1  0  0  0  0
 19 21  1  0  0  0  0
 20 53  1  0  0  0  0
 20 51  1  0  0  0  0
 21 54  1  0  0  0  0
 21 22  1  0  0  0  0
 22 23  2  0  0  0  0
 22 29  1  0  0  0  0
 23 24  1  0  0  0  0
 24 25  1  0  0  0  0
 24 26  2  0  0  0  0
 26 27  1  0  0  0  0
 28 26  1  0  0  0  0
 28 57  1  0  0  0  0
 29 28  2  0  0  0  0
 30 29  1  0  0  0  0
 31  1  1  0  0  0  0
 32  2  1  0  0  0  0
 39 10  1  0  0  0  0
 41 11  1  0  0  0  0
 42 12  1  0  0  0  0
 43 12  1  0  0  0  0
 45 13  1  0  0  0  0
 47 14  1  0  0  0  0
 48 18  1  0  0  0  0
 49 18  1  0  0  0  0
 52 20  1  0  0  0  0
 55 21  1  0  0  0  0
 56 23  1  0  0  0  0
M  CHG  1  20   1
M  END
$$$$
