3gnw_ligand_rnum.pdb
 OpenBabel02151809393D

 76 81  0  0  1  0  0  0  0  0999 V2000
   27.2090    6.8400   40.1460 O   0  0  0  0  0  0  0  0  0  0  0  0
   28.2350    6.4290   39.6280 C   0  0  0  0  0  0  0  0  0  0  0  0
   29.2100    5.7280   40.5020 C   0  0  0  0  0  0  0  0  0  0  0  0
   29.6290    4.4390   40.2160 C   0  0  0  0  0  0  0  0  0  0  0  0
   30.5430    3.8330   41.0740 C   0  0  0  0  0  0  0  0  0  0  0  0
   31.0460    4.5340   42.1850 C   0  0  0  0  0  0  0  0  0  0  0  0
   30.6440    5.8340   42.4480 C   0  0  0  0  0  0  0  0  0  0  0  0
   31.1510    6.6080   43.6350 C   0  0  0  0  0  0  0  0  0  0  0  0
   29.7200    6.4160   41.6040 N   0  0  0  0  0  0  0  0  0  0  0  0
   28.4990    6.6200   38.2610 N   0  0  0  0  0  0  0  0  0  0  0  0
   29.7960    6.5320   37.6850 C   0  0  0  0  0  0  0  0  0  0  0  0
   30.8280    7.3740   38.1260 C   0  0  0  0  0  0  0  0  0  0  0  0
   32.0890    7.3190   37.5480 C   0  0  0  0  0  0  0  0  0  0  0  0
   27.3780    6.9220   37.3460 C   0  0  2  0  0  0  0  0  0  0  0  0
   26.9060    5.6410   36.7090 C   0  0  0  0  0  0  0  0  0  0  0  0
   25.2010    5.5080   36.7120 S   0  0  0  0  0  0  0  0  0  0  0  0
   24.6590    6.6790   36.0270 O   0  0  0  0  0  0  0  0  0  0  0  0
   24.6740    5.5040   38.0560 O   0  0  0  0  0  0  0  0  0  0  0  0
   24.7630    3.9640   35.8880 C   0  0  0  0  0  0  0  0  0  0  0  0
   25.7620    3.5660   34.8060 C   0  0  0  0  0  0  0  0  0  0  0  0
   25.3440    2.1900   34.2310 C   0  0  0  0  0  0  0  0  0  0  0  0
   25.8350    4.6180   33.6660 C   0  0  0  0  0  0  0  0  0  0  0  0
   27.1250    3.4330   35.5270 C   0  0  0  0  0  0  0  0  0  0  0  0
   27.7020    4.6770   36.1870 C   0  0  0  0  0  0  0  0  0  0  0  0
   29.0900    4.7110   36.1600 N   0  0  0  0  0  0  0  0  0  0  0  0
   30.0430    5.6160   36.6560 C   0  0  0  0  0  0  0  0  0  0  0  0
   31.3110    5.5550   36.1070 C   0  0  0  0  0  0  0  0  0  0  0  0
   31.6040    4.6780   35.1050 O   0  0  0  0  0  0  0  0  0  0  0  0
   32.3180    6.4040   36.5510 C   0  0  0  0  0  0  0  0  0  0  0  0
   27.8670    8.0410   36.3960 C   0  0  0  0  0  0  0  0  0  0  0  0
   28.1250    9.3010   36.9200 C   0  0  0  0  0  0  0  0  0  0  0  0
   27.9370    9.4960   38.2230 F   0  0  0  0  0  0  0  0  0  0  0  0
   28.5550   10.3460   36.1000 C   0  0  0  0  0  0  0  0  0  0  0  0
   28.7350   10.1290   34.7330 C   0  0  0  0  0  0  0  0  0  0  0  0
   28.4790    8.8560   34.2050 C   0  0  0  0  0  0  0  0  0  0  0  0
   28.0420    7.8260   35.0300 C   0  0  0  0  0  0  0  0  0  0  0  0
   29.1790   11.1700   33.9580 O   0  0  0  0  0  0  0  0  0  0  0  0
   29.4400   11.0410   32.5430 C   0  0  0  0  0  0  0  0  0  0  0  0
   28.1320   10.9290   31.7720 C   0  0  0  0  0  0  0  0  0  0  0  0
   28.0230   10.0310   30.7260 C   0  0  0  0  0  0  0  0  0  0  0  0
   26.8260    9.8880   30.0340 C   0  0  0  0  0  0  0  0  0  0  0  0
   25.7290   10.6630   30.3820 C   0  0  0  0  0  0  0  0  0  0  0  0
   25.8350   11.5800   31.4400 C   0  0  0  0  0  0  0  0  0  0  0  0
   27.0300   11.7070   32.1370 C   0  0  0  0  0  0  0  0  0  0  0  0
   29.2480    3.9060   39.3570 H   0  0  0  0  0  0  0  0  0  0  0  0
   30.8770    2.8240   40.8790 H   0  0  0  0  0  0  0  0  0  0  0  0
   31.7690    4.0600   42.8280 H   0  0  0  0  0  0  0  0  0  0  0  0
   30.7130    7.6060   43.6680 H   0  0  0  0  0  0  0  0  0  0  0  0
   30.8940    6.0930   44.5610 H   0  0  0  0  0  0  0  0  0  0  0  0
   32.2350    6.7110   43.5850 H   0  0  0  0  0  0  0  0  0  0  0  0
   30.6410    8.0910   38.9130 H   0  0  0  0  0  0  0  0  0  0  0  0
   32.8770    7.9750   37.8890 H   0  0  0  0  0  0  0  0  0  0  0  0
   26.5420    7.3660   37.8870 H   0  0  0  0  0  0  0  0  0  0  0  0
   23.7790    4.0850   35.4480 H   0  0  0  0  0  0  0  0  0  0  0  0
   24.6890    3.1920   36.6550 H   0  0  0  0  0  0  0  0  0  0  0  0
   26.0820    1.8200   33.5220 H   0  0  0  0  0  0  0  0  0  0  0  0
   25.2450    1.4380   35.0150 H   0  0  0  0  0  0  0  0  0  0  0  0
   24.3900    2.2480   33.7110 H   0  0  0  0  0  0  0  0  0  0  0  0
   26.5960    4.3450   32.9340 H   0  0  0  0  0  0  0  0  0  0  0  0
   24.8860    4.6720   33.1330 H   0  0  0  0  0  0  0  0  0  0  0  0
   26.0670    5.6220   34.0120 H   0  0  0  0  0  0  0  0  0  0  0  0
   27.8560    3.0460   34.8150 H   0  0  0  0  0  0  0  0  0  0  0  0
   27.0490    2.6700   36.3040 H   0  0  0  0  0  0  0  0  0  0  0  0
   29.5170    3.9860   35.6010 H   0  0  0  0  0  0  0  0  0  0  0  0
   32.4710    4.8230   34.7410 H   0  0  0  0  0  0  0  0  0  0  0  0
   33.3040    6.3500   36.1160 H   0  0  0  0  0  0  0  0  0  0  0  0
   28.7500   11.3200   36.5250 H   0  0  0  0  0  0  0  0  0  0  0  0
   28.6160    8.6390   33.1580 H   0  0  0  0  0  0  0  0  0  0  0  0
   27.8610    6.8620   34.5840 H   0  0  0  0  0  0  0  0  0  0  0  0
   30.0910   10.1870   32.3580 H   0  0  0  0  0  0  0  0  0  0  0  0
   29.9720   11.9230   32.2010 H   0  0  0  0  0  0  0  0  0  0  0  0
   28.8730    9.4330   30.4390 H   0  0  0  0  0  0  0  0  0  0  0  0
   26.7550    9.1770   29.2240 H   0  0  0  0  0  0  0  0  0  0  0  0
   24.8080   10.5280   29.8420 H   0  0  0  0  0  0  0  0  0  0  0  0
   24.9800   12.1760   31.7250 H   0  0  0  0  0  0  0  0  0  0  0  0
   27.0960   12.3890   32.9710 H   0  0  0  0  0  0  0  0  0  0  0  0
  2  1  2  0  0  0  0
  2  3  1  0  0  0  0
  3  9  1  0  0  0  0
  4  3  2  0  0  0  0
  4  5  1  0  0  0  0
  5  6  2  0  0  0  0
  6  7  1  0  0  0  0
  6 47  1  0  0  0  0
  7  8  1  0  0  0  0
  8 48  1  0  0  0  0
  8 49  1  0  0  0  0
  9  7  2  0  0  0  0
 10  2  1  0  0  0  0
 11 12  1  0  0  0  0
 11 10  1  0  0  0  0
 12 51  1  0  0  0  0
 13 52  1  0  0  0  0
 13 12  2  0  0  0  0
 14 53  1  1  0  0  0
 14 10  1  0  0  0  0
 15 16  1  0  0  0  0
 15 14  1  0  0  0  0
 16 18  2  0  0  0  0
 17 16  2  0  0  0  0
 19 55  1  0  0  0  0
 19 16  1  0  0  0  0
 20 23  1  0  0  0  0
 20 19  1  0  0  0  0
 21 20  1  0  0  0  0
 21 57  1  0  0  0  0
 22 61  1  0  0  0  0
 22 20  1  0  0  0  0
 23 24  1  0  0  0  0
 23 63  1  0  0  0  0
 24 15  2  0  0  0  0
 25 24  1  0  0  0  0
 25 26  1  0  0  0  0
 26 11  2  0  0  0  0
 27 29  2  0  0  0  0
 27 26  1  0  0  0  0
 28 27  1  0  0  0  0
 29 13  1  0  0  0  0
 30 31  1  0  0  0  0
 30 14  1  0  0  0  0
 31 32  1  0  0  0  0
 33 67  1  0  0  0  0
 33 31  2  0  0  0  0
 34 33  1  0  0  0  0
 35 34  2  0  0  0  0
 35 36  1  0  0  0  0
 36 30  2  0  0  0  0
 37 34  1  0  0  0  0
 38 37  1  0  0  0  0
 39 44  1  0  0  0  0
 39 38  1  0  0  0  0
 40 39  2  0  0  0  0
 41 42  2  0  0  0  0
 41 40  1  0  0  0  0
 42 43  1  0  0  0  0
 43 75  1  0  0  0  0
 43 44  2  0  0  0  0
 44 76  1  0  0  0  0
 45  4  1  0  0  0  0
 46  5  1  0  0  0  0
 50  8  1  0  0  0  0
 54 19  1  0  0  0  0
 56 21  1  0  0  0  0
 58 21  1  0  0  0  0
 59 22  1  0  0  0  0
 60 22  1  0  0  0  0
 62 23  1  0  0  0  0
 64 25  1  0  0  0  0
 65 28  1  0  0  0  0
 66 29  1  0  0  0  0
 68 35  1  0  0  0  0
 69 36  1  0  0  0  0
 70 38  1  0  0  0  0
 71 38  1  0  0  0  0
 72 40  1  0  0  0  0
 73 41  1  0  0  0  0
 74 42  1  0  0  0  0
M  END
$$$$
