4dew_ligand_rnum.pdb
 OpenBabel02151809393D

 31 33  0  0  0  0  0  0  0  0999 V2000
   19.4680   41.1430   36.1040 C   0  0  0  0  0  0  0  0  0  0  0  0
   18.2640   40.6470   34.1800 O   0  0  0  0  0  0  0  0  0  0  0  0
   19.3420   41.1790   34.7370 C   0  0  0  0  0  0  0  0  0  0  0  0
   22.3410   42.9580   33.7820 O   0  0  0  0  0  0  0  0  0  0  0  0
   20.3170   41.8010   33.9520 C   0  0  0  0  0  0  0  0  0  0  0  0
   23.4840   43.5640   35.9950 O   0  0  0  0  0  0  0  0  0  0  0  0
   21.4190   42.3770   34.5570 C   0  0  0  0  0  0  0  0  0  0  0  0
   20.6270   41.6620   38.0210 O   0  0  0  0  0  0  0  0  0  0  0  0
   21.5510   42.3450   35.9480 C   0  0  0  0  0  0  0  0  0  0  0  0
   21.3150   39.7780   42.9400 O   0  0  0  0  0  0  0  0  0  0  0  0
   20.5700   41.7380   36.6910 C   0  0  0  0  0  0  0  0  0  0  0  0
   21.5160   42.2990   43.9810 O   0  0  0  0  0  0  0  0  0  0  0  0
   22.6170   42.9270   36.5930 C   0  0  0  0  0  0  0  0  0  0  0  0
   22.6260   42.9240   37.9670 C   0  0  0  0  0  0  0  0  0  0  0  0
   21.6460   42.2440   38.6520 C   0  0  0  0  0  0  0  0  0  0  0  0
   21.6220   42.1920   40.0070 C   0  0  0  0  0  0  0  0  0  0  0  0
   21.5070   40.9710   40.7210 C   0  0  0  0  0  0  0  0  0  0  0  0
   21.4600   40.9430   42.1060 C   0  0  0  0  0  0  0  0  0  0  0  0
   21.5460   42.2130   42.6660 C   0  0  0  0  0  0  0  0  0  0  0  0
   21.6580   43.4160   41.9890 C   0  0  0  0  0  0  0  0  0  0  0  0
   21.6940   43.4170   40.6370 C   0  0  0  0  0  0  0  0  0  0  0  0
   18.7150   40.6620   36.7120 H   0  0  0  0  0  0  0  0  0  0  0  0
   18.3120   40.5870   33.2370 H   0  0  0  0  0  0  0  0  0  0  0  0
   22.9970   43.4190   34.2890 H   0  0  0  0  0  0  0  0  0  0  0  0
   20.2210   41.8120   32.8750 H   0  0  0  0  0  0  0  0  0  0  0  0
   21.3420   38.9680   42.4530 H   0  0  0  0  0  0  0  0  0  0  0  0
   21.4740   41.4430   44.3860 H   0  0  0  0  0  0  0  0  0  0  0  0
   23.4270   43.4340   38.4840 H   0  0  0  0  0  0  0  0  0  0  0  0
   21.4540   40.0480   40.1840 H   0  0  0  0  0  0  0  0  0  0  0  0
   21.7100   44.3490   42.5320 H   0  0  0  0  0  0  0  0  0  0  0  0
   21.7660   44.3480   40.0980 H   0  0  0  0  0  0  0  0  0  0  0  0
  1 11  1  0  0  0  0
  1 22  1  0  0  0  0
  2  3  1  0  0  0  0
  3  1  2  0  0  0  0
  4 24  1  0  0  0  0
  4  7  1  0  0  0  0
  5  7  2  0  0  0  0
  5  3  1  0  0  0  0
  6 13  2  0  0  0  0
  7  9  1  0  0  0  0
  8 15  1  0  0  0  0
  9 13  1  0  0  0  0
  9 11  2  0  0  0  0
 11  8  1  0  0  0  0
 12 27  1  0  0  0  0
 13 14  1  0  0  0  0
 14 28  1  0  0  0  0
 14 15  2  0  0  0  0
 15 16  1  0  0  0  0
 16 21  2  0  0  0  0
 16 17  1  0  0  0  0
 17 18  2  0  0  0  0
 18 19  1  0  0  0  0
 18 10  1  0  0  0  0
 19 12  1  0  0  0  0
 20 30  1  0  0  0  0
 20 19  2  0  0  0  0
 21 20  1  0  0  0  0
 23  2  1  0  0  0  0
 25  5  1  0  0  0  0
 26 10  1  0  0  0  0
 29 17  1  0  0  0  0
 31 21  1  0  0  0  0
M  END
$$$$
