3g2n_ligand_rnum.pdb
 OpenBabel02151809393D

 37 38  0  0  1  0  0  0  0  0999 V2000
   37.1580   23.4870   30.4910 C   0  0  0  0  0  0  0  0  0  0  0  0
   38.3350   23.8670   31.1330 C   0  0  0  0  0  0  0  0  0  0  0  0
   38.4750   25.1600   31.6300 C   0  0  0  0  0  0  0  0  0  0  0  0
   37.4290   26.0740   31.4840 C   0  0  0  0  0  0  0  0  0  0  0  0
   36.2470   25.6910   30.8390 C   0  0  0  0  0  0  0  0  0  0  0  0
   36.1140   24.3940   30.3420 C   0  0  0  0  0  0  0  0  0  0  0  0
   34.8170   23.9710   29.6420 C   0  0  0  0  0  0  0  0  0  0  0  0
   33.7260   24.2890   30.1100 O   0  0  0  0  0  0  0  0  0  0  0  0
   34.9690   23.2500   28.5340 N   0  0  0  0  0  0  0  0  0  0  0  0
   33.7690   22.7880   27.7880 C   0  0  2  0  0  0  0  0  0  0  0  0
   33.5440   21.3610   28.0580 O   0  0  0  0  0  0  0  0  0  0  0  0
   32.3720   20.8560   27.4120 C   0  0  2  0  0  0  0  0  0  0  0  0
   32.2320   19.3880   27.8560 C   0  0  0  0  0  0  0  0  0  0  0  0
   33.3160   18.6190   27.3300 O   0  0  0  0  0  0  0  0  0  0  0  0
   32.5250   21.0280   25.8800 C   0  0  1  0  0  0  0  0  0  0  0  0
   31.3420   20.5750   25.2380 O   0  0  0  0  0  0  0  0  0  0  0  0
   32.7830   22.4940   25.4940 C   0  0  2  0  0  0  0  0  0  0  0  0
   33.0530   22.5840   24.0950 O   0  0  0  0  0  0  0  0  0  0  0  0
   33.9700   23.0640   26.2880 C   0  0  1  0  0  0  0  0  0  0  0  0
   34.1230   24.4740   26.0520 O   0  0  0  0  0  0  0  0  0  0  0  0
   37.0490   22.4860   30.1250 H   0  0  0  0  0  0  0  0  0  0  0  0
   39.1410   23.1580   31.2470 H   0  0  0  0  0  0  0  0  0  0  0  0
   39.3860   25.4520   32.1310 H   0  0  0  0  0  0  0  0  0  0  0  0
   37.5310   27.0640   31.9010 H   0  0  0  0  0  0  0  0  0  0  0  0
   35.4280   26.3880   30.7480 H   0  0  0  0  0  0  0  0  0  0  0  0
   35.8820   23.0320   28.1580 H   0  0  0  0  0  0  0  0  0  0  0  0
   32.8810   23.3260   28.1250 H   0  0  0  0  0  0  0  0  0  0  0  0
   31.5080   21.4170   27.7620 H   0  0  0  0  0  0  0  0  0  0  0  0
   31.2930   18.9700   27.4910 H   0  0  0  0  0  0  0  0  0  0  0  0
   32.2200   19.2900   28.9360 H   0  0  0  0  0  0  0  0  0  0  0  0
   34.0920   18.7930   27.8500 H   0  0  0  0  0  0  0  0  0  0  0  0
   33.3590   20.4260   25.5180 H   0  0  0  0  0  0  0  0  0  0  0  0
   30.6130   21.0800   25.5640 H   0  0  0  0  0  0  0  0  0  0  0  0
   31.8900   23.0840   25.7070 H   0  0  0  0  0  0  0  0  0  0  0  0
   32.9260   23.4910   23.8320 H   0  0  0  0  0  0  0  0  0  0  0  0
   34.8750   22.5580   25.9630 H   0  0  0  0  0  0  0  0  0  0  0  0
   34.2410   24.6160   25.1240 H   0  0  0  0  0  0  0  0  0  0  0  0
  1  2  1  0  0  0  0
  2 22  1  0  0  0  0
  2  3  2  0  0  0  0
  3 23  1  0  0  0  0
  4  3  1  0  0  0  0
  4 24  1  0  0  0  0
  5  4  2  0  0  0  0
  6  1  2  0  0  0  0
  6  5  1  0  0  0  0
  7  8  2  0  0  0  0
  7  6  1  0  0  0  0
  9  7  1  0  0  0  0
 10 19  1  6  0  0  0
 10 11  1  0  0  0  0
 10 27  1  0  0  0  0
 10  9  1  0  0  0  0
 12 15  1  6  0  0  0
 12 28  1  0  0  0  0
 12 13  1  0  0  0  0
 12 11  1  0  0  0  0
 13 30  1  0  0  0  0
 14 31  1  0  0  0  0
 14 13  1  0  0  0  0
 15 17  1  6  0  0  0
 16 33  1  0  0  0  0
 16 15  1  0  0  0  0
 17 34  1  0  0  0  0
 17 19  1  1  0  0  0
 18 17  1  0  0  0  0
 19 36  1  6  0  0  0
 20 19  1  0  0  0  0
 21  1  1  0  0  0  0
 25  5  1  0  0  0  0
 26  9  1  0  0  0  0
 29 13  1  0  0  0  0
 32 15  1  0  0  0  0
 35 18  1  0  0  0  0
 37 20  1  0  0  0  0
M  END
$$$$
