3gcs_ligand_rnum.pdb
 OpenBabel02151809393D

 48 50  0  0  0  0  0  0  0  0999 V2000
  -16.3690   -7.3230   17.9900 C   0  0  0  0  0  0  0  0  0  0  0  0
  -17.1540   -7.0030   16.8680 C   0  0  0  0  0  0  0  0  0  0  0  0
  -16.6900   -7.3370   15.5950 C   0  0  0  0  0  0  0  0  0  0  0  0
  -15.4600   -7.9590   15.4230 C   0  0  0  0  0  0  0  0  0  0  0  0
  -18.7080   -5.4950   17.9310 C   0  0  0  0  0  0  0  0  0  0  0  0
  -20.5500   -4.1300   18.6720 C   0  0  0  0  0  0  0  0  0  0  0  0
  -19.8220   -3.1080   19.2760 C   0  0  0  0  0  0  0  0  0  0  0  0
  -20.4350   -2.1950   20.1410 C   0  0  0  0  0  0  0  0  0  0  0  0
  -21.8190   -2.2870   20.3470 C   0  0  0  0  0  0  0  0  0  0  0  0
  -22.5540   -3.2970   19.7490 C   0  0  0  0  0  0  0  0  0  0  0  0
  -21.9300   -4.2150   18.9150 C   0  0  0  0  0  0  0  0  0  0  0  0
  -22.4910   -1.4470   21.2080 O   0  0  0  0  0  0  0  0  0  0  0  0
  -22.1850    0.5610   19.9760 C   0  0  0  0  0  0  0  0  0  0  0  0
  -22.0690    1.9530   20.0280 C   0  0  0  0  0  0  0  0  0  0  0  0
  -22.2950    1.9430   22.3740 C   0  0  0  0  0  0  0  0  0  0  0  0
  -22.4250    0.5550   22.3790 C   0  0  0  0  0  0  0  0  0  0  0  0
  -22.3710    4.0680   23.5530 N   0  0  0  0  0  0  0  0  0  0  0  0
  -22.4200    4.8910   24.7720 C   0  0  0  0  0  0  0  0  0  0  0  0
  -14.6740   -8.2420   16.5630 C   0  0  0  0  0  0  0  0  0  0  0  0
  -15.1120   -7.9330   17.8450 C   0  0  0  0  0  0  0  0  0  0  0  0
  -14.2580   -8.2750   19.0990 C   0  0  0  0  0  0  0  0  0  0  0  0
  -14.9290   -7.8860   20.1380 F   0  0  0  0  0  0  0  0  0  0  0  0
  -14.0260   -9.5830   19.2090 F   0  0  0  0  0  0  0  0  0  0  0  0
  -13.1090   -7.6340   19.1850 F   0  0  0  0  0  0  0  0  0  0  0  0
  -13.1510   -9.0000   16.3780 Cl  0  0  0  0  0  0  0  0  0  0  0  0
  -18.3750   -6.4010   16.9870 N   0  0  0  0  0  0  0  0  0  0  0  0
  -19.9700   -5.0250   17.8550 N   0  0  0  0  0  0  0  0  0  0  0  0
  -17.9230   -5.1310   18.8240 O   0  0  0  0  0  0  0  0  0  0  0  0
  -22.3470   -0.1230   21.1720 C   0  0  0  0  0  0  0  0  0  0  0  0
  -22.1190    2.5800   21.2000 N   0  0  0  0  0  0  0  0  0  0  0  0
  -22.3510    2.7400   23.6900 C   0  0  0  0  0  0  0  0  0  0  0  0
  -22.3790    2.1590   24.7710 O   0  0  0  0  0  0  0  0  0  0  0  0
  -16.7390   -7.1400   18.9850 H   0  0  0  0  0  0  0  0  0  0  0  0
  -17.2930   -7.1080   14.7280 H   0  0  0  0  0  0  0  0  0  0  0  0
  -15.1020   -8.2100   14.4370 H   0  0  0  0  0  0  0  0  0  0  0  0
  -18.7700   -2.9600   19.0910 H   0  0  0  0  0  0  0  0  0  0  0  0
  -19.8520   -1.4220   20.6190 H   0  0  0  0  0  0  0  0  0  0  0  0
  -23.6160   -3.3740   19.9330 H   0  0  0  0  0  0  0  0  0  0  0  0
  -22.5230   -4.9830   18.4450 H   0  0  0  0  0  0  0  0  0  0  0  0
  -22.1480    0.0460   19.0280 H   0  0  0  0  0  0  0  0  0  0  0  0
  -21.9330    2.5500   19.1390 H   0  0  0  0  0  0  0  0  0  0  0  0
  -22.5610    0.0070   23.3000 H   0  0  0  0  0  0  0  0  0  0  0  0
  -22.3340    4.4970   22.6390 H   0  0  0  0  0  0  0  0  0  0  0  0
  -21.7540    5.7440   24.6470 H   0  0  0  0  0  0  0  0  0  0  0  0
  -23.4270    5.2840   24.9080 H   0  0  0  0  0  0  0  0  0  0  0  0
  -22.1230    4.3900   25.6930 H   0  0  0  0  0  0  0  0  0  0  0  0
  -19.0450   -6.5730   16.2460 H   0  0  0  0  0  0  0  0  0  0  0  0
  -20.5710   -5.4200   17.1320 H   0  0  0  0  0  0  0  0  0  0  0  0
  1 33  1  0  0  0  0
  2 26  1  0  0  0  0
  2  1  2  0  0  0  0
  3  2  1  0  0  0  0
  4  3  2  0  0  0  0
  4 19  1  0  0  0  0
  5 28  2  0  0  0  0
  6 11  2  0  0  0  0
  6  7  1  0  0  0  0
  7  8  2  0  0  0  0
  8  9  1  0  0  0  0
  8 37  1  0  0  0  0
  9 12  1  0  0  0  0
 10 38  1  0  0  0  0
 10  9  2  0  0  0  0
 11 10  1  0  0  0  0
 13 14  2  0  0  0  0
 13 29  1  0  0  0  0
 14 30  1  0  0  0  0
 15 16  1  0  0  0  0
 15 31  1  0  0  0  0
 16 42  1  0  0  0  0
 17 31  1  0  0  0  0
 17 18  1  0  0  0  0
 18 45  1  0  0  0  0
 18 46  1  0  0  0  0
 19 20  2  0  0  0  0
 20  1  1  0  0  0  0
 20 21  1  0  0  0  0
 21 24  1  0  0  0  0
 21 23  1  0  0  0  0
 21 22  1  0  0  0  0
 25 19  1  0  0  0  0
 26  5  1  0  0  0  0
 27  5  1  0  0  0  0
 27  6  1  0  0  0  0
 29 12  1  0  0  0  0
 29 16  2  0  0  0  0
 30 15  2  0  0  0  0
 31 32  2  0  0  0  0
 34  3  1  0  0  0  0
 35  4  1  0  0  0  0
 36  7  1  0  0  0  0
 39 11  1  0  0  0  0
 40 13  1  0  0  0  0
 41 14  1  0  0  0  0
 43 17  1  0  0  0  0
 44 18  1  0  0  0  0
 47 26  1  0  0  0  0
 48 27  1  0  0  0  0
M  END
$$$$
