2qbr_ligand_rnum.pdb
 OpenBabel02151809393D

 42 44  0  0  0  0  0  0  0  0999 V2000
   44.9240   14.3230    0.6640 S   0  0  0  0  0  0  0  0  0  0  0  0
   45.0960   15.6460    1.7300 C   0  0  0  0  0  0  0  0  0  0  0  0
   45.9700   15.2890    2.7910 C   0  0  0  0  0  0  0  0  0  0  0  0
   46.4440   13.9560    2.6530 C   0  0  0  0  0  0  0  0  0  0  0  0
   45.9450   13.2820    1.5090 C   0  0  0  0  0  0  0  0  0  0  0  0
   44.4140   16.8590    1.4850 C   0  0  0  0  0  0  0  0  0  0  0  0
   44.4470   17.7800    2.2990 O   0  0  0  0  0  0  0  0  0  0  0  0
   43.7890   16.9570    0.4240 O   0  5  0  0  0  0  0  0  0  0  0  0
   46.2010   11.8870    1.0260 C   0  0  0  0  0  0  0  0  0  0  0  0
   47.5180   11.3150    1.0600 C   0  0  0  0  0  0  0  0  0  0  0  0
   47.7370    9.9830    0.6010 C   0  0  0  0  0  0  0  0  0  0  0  0
   46.6290    9.2030    0.0970 C   0  0  0  0  0  0  0  0  0  0  0  0
   45.3100    9.7660    0.0560 C   0  0  0  0  0  0  0  0  0  0  0  0
   45.1080   11.1050    0.5240 C   0  0  0  0  0  0  0  0  0  0  0  0
   47.6320   13.1870    3.9130 Br  0  0  0  0  0  0  0  0  0  0  0  0
   46.3660   16.1140    3.9000 O   0  0  0  0  0  0  0  0  0  0  0  0
   47.5820   16.8460    3.7100 C   0  0  0  0  0  0  0  0  0  0  0  0
   47.9420   17.5920    4.9940 C   0  0  0  0  0  0  0  0  0  0  0  0
   47.1630   17.5430    5.9630 O   0  0  0  0  0  0  0  0  0  0  0  0
   49.0030   18.2220    5.0270 O   0  5  0  0  0  0  0  0  0  0  0  0
   49.0320    9.5000    0.6690 N   0  0  0  0  0  0  0  0  0  0  0  0
   49.4040    8.0820    0.8060 C   0  0  0  0  0  0  0  0  0  0  0  0
   49.4490    7.6120    2.2450 C   0  0  0  0  0  0  0  0  0  0  0  0
   48.2330    7.1950    2.8950 C   0  0  0  0  0  0  0  0  0  0  0  0
   48.2680    6.7450    4.2530 C   0  0  0  0  0  0  0  0  0  0  0  0
   49.5260    6.7190    4.9440 C   0  0  0  0  0  0  0  0  0  0  0  0
   50.7460    7.1350    4.3000 C   0  0  0  0  0  0  0  0  0  0  0  0
   50.7060    7.5850    2.9370 C   0  0  0  0  0  0  0  0  0  0  0  0
   48.3480   11.9000    1.4290 H   0  0  0  0  0  0  0  0  0  0  0  0
   46.7810    8.1990   -0.2670 H   0  0  0  0  0  0  0  0  0  0  0  0
   44.4800    9.1870   -0.3210 H   0  0  0  0  0  0  0  0  0  0  0  0
   44.1150   11.5250    0.4980 H   0  0  0  0  0  0  0  0  0  0  0  0
   47.4620   17.5620    2.8950 H   0  0  0  0  0  0  0  0  0  0  0  0
   48.3970   16.1710    3.4460 H   0  0  0  0  0  0  0  0  0  0  0  0
   49.7320   10.1540    0.9910 H   0  0  0  0  0  0  0  0  0  0  0  0
   50.3890    7.9470    0.3580 H   0  0  0  0  0  0  0  0  0  0  0  0
   48.7290    7.4430    0.2390 H   0  0  0  0  0  0  0  0  0  0  0  0
   47.2940    7.2230    2.3620 H   0  0  0  0  0  0  0  0  0  0  0  0
   47.3570    6.4440    4.7440 H   0  0  0  0  0  0  0  0  0  0  0  0
   49.5550    6.3640    5.9620 H   0  0  0  0  0  0  0  0  0  0  0  0
   51.6830    7.1020    4.8360 H   0  0  0  0  0  0  0  0  0  0  0  0
   51.6140    7.8970    2.4410 H   0  0  0  0  0  0  0  0  0  0  0  0
  1  5  1  0  0  0  0
  1  2  1  0  0  0  0
  2  3  2  0  0  0  0
  3 16  1  0  0  0  0
  4  3  1  0  0  0  0
  4 15  1  0  0  0  0
  5  4  2  0  0  0  0
  6  2  1  0  0  0  0
  6  7  1  0  0  0  0
  8  6  2  0  0  0  0
  9 10  1  0  0  0  0
  9  5  1  0  0  0  0
 10 29  1  0  0  0  0
 11 21  1  0  0  0  0
 11 10  2  0  0  0  0
 12 11  1  0  0  0  0
 13 12  2  0  0  0  0
 13 14  1  0  0  0  0
 14  9  2  0  0  0  0
 17 16  1  0  0  0  0
 17 18  1  0  0  0  0
 18 20  2  0  0  0  0
 18 19  1  0  0  0  0
 21 22  1  0  0  0  0
 21 35  1  0  0  0  0
 22 23  1  0  0  0  0
 23 24  2  0  0  0  0
 23 28  1  0  0  0  0
 24 25  1  0  0  0  0
 25 39  1  0  0  0  0
 25 26  2  0  0  0  0
 26 40  1  0  0  0  0
 27 41  1  0  0  0  0
 27 26  1  0  0  0  0
 28 27  2  0  0  0  0
 30 12  1  0  0  0  0
 31 13  1  0  0  0  0
 32 14  1  0  0  0  0
 33 17  1  0  0  0  0
 34 17  1  0  0  0  0
 36 22  1  0  0  0  0
 37 22  1  0  0  0  0
 38 24  1  0  0  0  0
 42 28  1  0  0  0  0
M  CHG  2   8  -1  20  -1
M  END
$$$$
