2x0y_ligand_rnum.pdb
 OpenBabel02151809393D

 32 33  0  0  1  0  0  0  0  0999 V2000
   35.6110   47.2310   22.1750 C   0  0  0  0  0  0  0  0  0  0  0  0
   35.2800   45.7690   22.2350 N   0  0  0  0  0  0  0  0  0  0  0  0
   36.2860   44.8090   22.1740 C   0  0  0  0  0  0  0  0  0  0  0  0
   37.4510   45.2020   22.0710 O   0  0  0  0  0  0  0  0  0  0  0  0
   35.9690   43.4200   22.2160 N   0  0  0  0  0  0  0  0  0  0  0  0
   37.0540   42.4090   22.1670 C   0  0  0  0  0  0  0  0  0  0  0  0
   34.6280   43.0120   22.3280 C   0  0  0  0  0  0  0  0  0  0  0  0
   34.3300   41.8080   22.3740 O   0  0  0  0  0  0  0  0  0  0  0  0
   33.6310   43.9970   22.3900 C   0  0  0  0  0  0  0  0  0  0  0  0
   33.9440   45.3540   22.3460 C   0  0  0  0  0  0  0  0  0  0  0  0
   32.8030   46.0490   22.4350 N   0  0  0  0  0  0  0  0  0  0  0  0
   31.7940   45.1740   22.5430 C   0  0  0  0  0  0  0  0  0  0  0  0
   32.3080   43.9460   22.5120 N   0  0  0  0  0  0  0  0  0  0  0  0
   31.5640   42.6810   22.5950 C   0  0  0  0  0  0  0  0  0  0  0  0
   30.0650   42.8360   22.6760 C   0  0  2  0  0  0  0  0  0  0  0  0
   29.7180   43.4200   23.9320 O   0  0  0  0  0  0  0  0  0  0  0  0
   29.4630   41.4380   22.5790 C   0  0  0  0  0  0  0  0  0  0  0  0
   28.1560   41.5710   22.0600 O   0  0  0  0  0  0  0  0  0  0  0  0
   34.9650   47.7280   21.4510 H   0  0  0  0  0  0  0  0  0  0  0  0
   35.4290   47.6870   23.1480 H   0  0  0  0  0  0  0  0  0  0  0  0
   36.6390   47.4580   21.8960 H   0  0  0  0  0  0  0  0  0  0  0  0
   36.7080   41.3770   22.1690 H   0  0  0  0  0  0  0  0  0  0  0  0
   37.6490   42.5520   21.2660 H   0  0  0  0  0  0  0  0  0  0  0  0
   37.7150   42.5290   23.0260 H   0  0  0  0  0  0  0  0  0  0  0  0
   30.7520   45.4440   22.6300 H   0  0  0  0  0  0  0  0  0  0  0  0
   31.9290   42.1300   23.4570 H   0  0  0  0  0  0  0  0  0  0  0  0
   31.8210   42.1020   21.7070 H   0  0  0  0  0  0  0  0  0  0  0  0
   29.7130   43.4630   21.8550 H   0  0  0  0  0  0  0  0  0  0  0  0
   28.8230   43.7450   23.8710 H   0  0  0  0  0  0  0  0  0  0  0  0
   29.4500   40.9240   23.5410 H   0  0  0  0  0  0  0  0  0  0  0  0
   30.0100   40.8040   21.8800 H   0  0  0  0  0  0  0  0  0  0  0  0
   27.6040   42.0350   22.6880 H   0  0  0  0  0  0  0  0  0  0  0  0
  1  2  1  0  0  0  0
  1 20  1  0  0  0  0
  2 10  1  0  0  0  0
  3  5  1  0  0  0  0
  3  2  1  0  0  0  0
  4  3  2  0  0  0  0
  5  7  1  0  0  0  0
  6 22  1  0  0  0  0
  6  5  1  0  0  0  0
  6 24  1  0  0  0  0
  7  8  2  0  0  0  0
  7  9  1  0  0  0  0
  9 13  1  0  0  0  0
 10  9  2  0  0  0  0
 10 11  1  0  0  0  0
 11 12  2  0  0  0  0
 12 25  1  0  0  0  0
 13 12  1  0  0  0  0
 13 14  1  0  0  0  0
 14 15  1  0  0  0  0
 14 26  1  0  0  0  0
 15 28  1  6  0  0  0
 15 16  1  0  0  0  0
 17 15  1  0  0  0  0
 17 30  1  0  0  0  0
 18 17  1  0  0  0  0
 18 32  1  0  0  0  0
 19  1  1  0  0  0  0
 21  1  1  0  0  0  0
 23  6  1  0  0  0  0
 27 14  1  0  0  0  0
 29 16  1  0  0  0  0
 31 17  1  0  0  0  0
M  END
$$$$
