3g2z_ligand_rnum.pdb
 OpenBabel02151809393D

 22 23  0  0  1  0  0  0  0  0999 V2000
   -6.2580   51.5760    8.7620 O   0  0  0  0  0  0  0  0  0  0  0  0
   -6.4170   51.8200    9.9490 C   0  0  0  0  0  0  0  0  0  0  0  0
   -5.2890   52.3690   10.7330 C   0  0  0  0  0  0  0  0  0  0  0  0
   -5.4420   52.7010   12.0280 C   0  0  1  0  0  0  0  0  0  0  0  0
   -6.7740   52.5630   12.7320 C   0  0  0  0  0  0  0  0  0  0  0  0
   -7.9760   52.4870   11.7940 C   0  0  0  0  0  0  0  0  0  0  0  0
   -7.7570   51.5620   10.6070 C   0  0  0  0  0  0  0  0  0  0  0  0
   -4.4610   53.1560   12.8200 N   0  3  0  0  0  0  0  0  0  0  0  0
   -3.1360   53.2840   12.5140 C   0  0  0  0  0  0  0  0  0  0  0  0
   -2.6620   53.5610   11.2920 N   0  5  0  0  0  0  0  0  0  0  0  0
   -1.2670   53.5860   11.4610 N   0  0  0  0  0  0  0  0  0  0  0  0
   -0.9850   53.3350   12.8170 N   0  0  0  0  0  0  0  0  0  0  0  0
   -2.1990   53.1450   13.4760 N   0  0  0  0  0  0  0  0  0  0  0  0
   -7.0750   51.2390    8.4270 H   0  0  0  0  0  0  0  0  0  0  0  0
   -4.3740   52.4760   10.1880 H   0  0  0  0  0  0  0  0  0  0  0  0
   -6.9130   53.3850   13.4360 H   0  0  0  0  0  0  0  0  0  0  0  0
   -6.7250   51.6550   13.3250 H   0  0  0  0  0  0  0  0  0  0  0  0
   -8.1720   53.4900   11.4100 H   0  0  0  0  0  0  0  0  0  0  0  0
   -8.8760   52.2010   12.3350 H   0  0  0  0  0  0  0  0  0  0  0  0
   -7.7790   50.5230   10.9390 H   0  0  0  0  0  0  0  0  0  0  0  0
   -8.5630   51.6820    9.8820 H   0  0  0  0  0  0  0  0  0  0  0  0
   -4.6810   53.2690   13.8020 H   0  0  0  0  0  0  0  0  0  0  0  0
  1  2  1  0  0  0  0
  2  7  1  0  0  0  0
  2  3  2  0  0  0  0
  3  4  1  0  0  0  0
  4  5  1  0  0  0  0
  4  8  1  1  0  0  0
  5 17  1  0  0  0  0
  5 16  1  0  0  0  0
  6 19  1  0  0  0  0
  6  5  1  0  0  0  0
  7 20  1  0  0  0  0
  7  6  1  0  0  0  0
  8 22  1  0  0  0  0
  9  8  1  0  0  0  0
  9 13  1  0  0  0  0
 10 11  1  0  0  0  0
 10  9  2  0  0  0  0
 11 12  1  0  0  0  0
 12 13  2  0  0  0  0
 14  1  1  0  0  0  0
 15  3  1  0  0  0  0
 18  6  1  0  0  0  0
 21  7  1  0  0  0  0
M  CHG  2   8   1  10  -1
M  END
$$$$
