3cft_ligand_rnum.pdb
 OpenBabel02151809393D

 23 24  0  0  0  0  0  0  0  0999 V2000
  -22.4990    1.7320  -27.0500 C   0  0  0  0  0  0  0  0  0  0  0  0
  -22.9310    2.1000  -25.7760 C   0  0  0  0  0  0  0  0  0  0  0  0
  -22.5900    1.3100  -24.6810 C   0  0  0  0  0  0  0  0  0  0  0  0
  -21.8130    0.1540  -24.8510 C   0  0  0  0  0  0  0  0  0  0  0  0
  -21.3740   -0.2190  -26.1400 C   0  0  0  0  0  0  0  0  0  0  0  0
  -21.7170    0.5840  -27.2480 C   0  0  0  0  0  0  0  0  0  0  0  0
  -20.2600   -2.1530  -25.1700 C   0  0  0  0  0  0  0  0  0  0  0  0
  -20.5960   -1.3790  -26.2800 C   0  0  0  0  0  0  0  0  0  0  0  0
  -20.7370    1.4800  -29.3870 O   0  0  0  0  0  0  0  0  0  0  0  0
  -21.2660    0.2440  -28.7650 S   0  0  0  0  0  0  0  0  0  0  0  0
  -22.4480   -0.2750  -29.5040 O   0  0  0  0  0  0  0  0  0  0  0  0
  -20.2070   -0.7970  -28.8280 O   0  5  0  0  0  0  0  0  0  0  0  0
  -20.7040   -1.7800  -23.9010 C   0  0  0  0  0  0  0  0  0  0  0  0
  -21.4790   -0.6300  -23.7340 C   0  0  0  0  0  0  0  0  0  0  0  0
  -21.8940   -0.3020  -22.4750 N   0  0  0  0  0  0  0  0  0  0  0  0
  -22.6090    2.3590  -27.8890 H   0  0  0  0  0  0  0  0  0  0  0  0
  -23.4980    3.0090  -25.6380 H   0  0  0  0  0  0  0  0  0  0  0  0
  -22.9350    1.6280  -23.7090 H   0  0  0  0  0  0  0  0  0  0  0  0
  -19.6930   -3.0620  -25.3000 H   0  0  0  0  0  0  0  0  0  0  0  0
  -20.2820   -1.9430  -27.1240 H   0  0  0  0  0  0  0  0  0  0  0  0
  -20.4630   -2.4040  -23.0540 H   0  0  0  0  0  0  0  0  0  0  0  0
  -21.5140   -0.7840  -21.6730 H   0  0  0  0  0  0  0  0  0  0  0  0
  -22.2990    0.6030  -22.2890 H   0  0  0  0  0  0  0  0  0  0  0  0
  1  2  1  0  0  0  0
  2 17  1  0  0  0  0
  2  3  2  0  0  0  0
  3 18  1  0  0  0  0
  4  3  1  0  0  0  0
  4 14  2  0  0  0  0
  5  4  1  0  0  0  0
  6  1  2  0  0  0  0
  6  5  1  0  0  0  0
  7 13  2  0  0  0  0
  8  5  2  0  0  0  0
  8  7  1  0  0  0  0
  9 10  1  0  0  0  0
 10  6  1  0  0  0  0
 11 10  1  0  0  0  0
 12 10  1  0  0  0  0
 13 14  1  0  0  0  0
 13 21  1  0  0  0  0
 14 15  1  0  0  0  0
 15 23  1  0  0  0  0
 15 22  1  0  0  0  0
 16  1  1  0  0  0  0
 19  7  1  0  0  0  0
 20  8  1  0  0  0  0
M  CHG  1  12  -1
M  END
$$$$
