1loq_ligand_rnum.pdb
 OpenBabel02151809393D

 32 33  0  0  1  0  0  0  0  0999 V2000
   39.1800   33.5330   36.3510 O   0  0  0  0  0  0  0  0  0  0  0  0
   39.1180   34.7040   35.2570 P   0  0  1  0  0  0  0  0  0  0  0  0
   40.3930   34.8170   34.4320 O   0  5  0  0  0  0  0  0  0  0  0  0
   37.9500   34.4720   34.3790 O   0  5  0  0  0  0  0  0  0  0  0  0
   38.7890   36.0630   36.0300 O   0  0  0  0  0  0  0  0  0  0  0  0
   39.7460   36.7240   36.8780 C   0  0  0  0  0  0  0  0  0  0  0  0
   39.0580   37.9290   37.4710 C   0  0  1  0  0  0  0  0  0  0  0  0
   39.9900   38.6330   38.3080 O   0  0  0  0  0  0  0  0  0  0  0  0
   38.4760   38.9770   36.5460 C   0  0  1  0  0  0  0  0  0  0  0  0
   37.3050   39.5700   37.0970 O   0  0  0  0  0  0  0  0  0  0  0  0
   39.6020   40.0150   36.4750 C   0  0  1  0  0  0  0  0  0  0  0  0
   39.1660   41.3750   36.2590 O   0  0  0  0  0  0  0  0  0  0  0  0
   40.2760   39.8940   37.8220 C   0  0  2  0  0  0  0  0  0  0  0  0
   41.7050   40.2160   37.9350 N   0  0  0  0  0  0  0  0  0  0  0  0
   42.6390   39.4970   37.1920 C   0  0  0  0  0  0  0  0  0  0  0  0
   42.2840   38.6140   36.4530 O   0  0  0  0  0  0  0  0  0  0  0  0
   43.9610   39.8690   37.3740 N   0  0  0  0  0  0  0  0  0  0  0  0
   44.4400   40.8780   38.2140 C   0  0  0  0  0  0  0  0  0  0  0  0
   45.6380   41.0640   38.2540 O   0  0  0  0  0  0  0  0  0  0  0  0
   43.4140   41.5670   38.9410 C   0  0  0  0  0  0  0  0  0  0  0  0
   42.1280   41.2370   38.7910 C   0  0  0  0  0  0  0  0  0  0  0  0
   40.5900   36.9900   36.2550 H   0  0  0  0  0  0  0  0  0  0  0  0
   40.0970   36.0440   37.6560 H   0  0  0  0  0  0  0  0  0  0  0  0
   38.2710   37.5440   38.1180 H   0  0  0  0  0  0  0  0  0  0  0  0
   38.2280   38.5800   35.5610 H   0  0  0  0  0  0  0  0  0  0  0  0
   36.5420   39.1230   36.7270 H   0  0  0  0  0  0  0  0  0  0  0  0
   40.2860   39.7410   35.6750 H   0  0  0  0  0  0  0  0  0  0  0  0
   38.2880   41.4420   36.6070 H   0  0  0  0  0  0  0  0  0  0  0  0
   39.7820   40.5510   38.5320 H   0  0  0  0  0  0  0  0  0  0  0  0
   44.6530   39.3310   36.8620 H   0  0  0  0  0  0  0  0  0  0  0  0
   43.6890   42.3540   39.6280 H   0  0  0  0  0  0  0  0  0  0  0  0
   41.4070   41.7580   39.4000 H   0  0  0  0  0  0  0  0  0  0  0  0
  2  4  2  6  0  0  0
  2  5  1  0  0  0  0
  2  1  1  0  0  0  0
  3  2  1  0  0  0  0
  5  6  1  0  0  0  0
  6  7  1  0  0  0  0
  6 23  1  0  0  0  0
  7  9  1  6  0  0  0
  7 24  1  0  0  0  0
  7  8  1  0  0  0  0
  9 11  1  6  0  0  0
  9 10  1  0  0  0  0
 11 13  1  1  0  0  0
 12 11  1  0  0  0  0
 12 28  1  0  0  0  0
 13 14  1  0  0  0  0
 13  8  1  0  0  0  0
 13 29  1  1  0  0  0
 14 21  1  0  0  0  0
 15 17  1  0  0  0  0
 15 14  1  0  0  0  0
 16 15  2  0  0  0  0
 17 18  1  0  0  0  0
 18 19  2  0  0  0  0
 18 20  1  0  0  0  0
 20 31  1  0  0  0  0
 21 20  2  0  0  0  0
 21 32  1  0  0  0  0
 22  6  1  0  0  0  0
 25  9  1  0  0  0  0
 26 10  1  0  0  0  0
 27 11  1  0  0  0  0
 30 17  1  0  0  0  0
M  CHG  2   3  -1   4  -1
M  END
$$$$
