3l4w_ligand_rnum.pdb
 OpenBabel02151809393D

 32 32  0  0  1  0  0  0  0  0999 V2000
   42.5010   89.4750   34.0700 O   0  0  0  0  0  0  0  0  0  0  0  0
   43.5400   94.0540   36.2930 O   0  0  0  0  0  0  0  0  0  0  0  0
   47.3420   92.1970   32.1470 O   0  0  0  0  0  0  0  0  0  0  0  0
   48.4860   93.7590   34.4000 O   0  0  0  0  0  0  0  0  0  0  0  0
   47.2460   93.4380   36.8280 O   0  0  0  0  0  0  0  0  0  0  0  0
   43.2230   90.2150   35.0500 C   0  0  0  0  0  0  0  0  0  0  0  0
   44.2640   92.9360   36.8730 C   0  0  0  0  0  0  0  0  0  0  0  0
   43.2040   91.6700   34.5750 C   0  0  0  0  0  0  0  0  0  0  0  0
   45.3800   91.6950   33.4780 C   0  0  0  0  0  0  0  0  0  0  0  0
   46.5700   92.6560   33.2520 C   0  0  1  0  0  0  0  0  0  0  0  0
   47.3930   92.8210   34.5360 C   0  0  2  0  0  0  0  0  0  0  0  0
   46.4630   93.3330   35.6540 C   0  0  1  0  0  0  0  0  0  0  0  0
   45.2510   92.3900   35.8350 C   0  0  2  0  0  0  0  0  0  0  0  0
   44.5500   92.2830   34.5170 N   0  3  2  0  0  0  0  0  0  0  0  0
   42.9450   89.5390   33.2370 H   0  0  0  0  0  0  0  0  0  0  0  0
   43.8540   94.8490   36.7120 H   0  0  0  0  0  0  0  0  0  0  0  0
   47.8850   91.4640   32.4330 H   0  0  0  0  0  0  0  0  0  0  0  0
   49.0660   93.4250   33.7320 H   0  0  0  0  0  0  0  0  0  0  0  0
   46.8570   94.0890   37.4100 H   0  0  0  0  0  0  0  0  0  0  0  0
   44.2260   89.7920   35.0770 H   0  0  0  0  0  0  0  0  0  0  0  0
   42.8660   90.1580   36.0690 H   0  0  0  0  0  0  0  0  0  0  0  0
   43.5490   92.1770   37.1900 H   0  0  0  0  0  0  0  0  0  0  0  0
   44.7720   93.2570   37.7810 H   0  0  0  0  0  0  0  0  0  0  0  0
   42.4660   92.2310   35.1420 H   0  0  0  0  0  0  0  0  0  0  0  0
   42.8200   91.7510   33.5660 H   0  0  0  0  0  0  0  0  0  0  0  0
   45.7330   90.6980   33.7420 H   0  0  0  0  0  0  0  0  0  0  0  0
   44.8000   91.6120   32.5610 H   0  0  0  0  0  0  0  0  0  0  0  0
   46.2080   93.6400   32.9730 H   0  0  0  0  0  0  0  0  0  0  0  0
   47.8140   91.8560   34.8170 H   0  0  0  0  0  0  0  0  0  0  0  0
   46.1180   94.3370   35.3990 H   0  0  0  0  0  0  0  0  0  0  0  0
   45.6030   91.4090   36.1570 H   0  0  0  0  0  0  0  0  0  0  0  0
   44.3670   93.2340   34.2100 H   0  0  0  0  0  0  0  0  0  0  0  0
  1  6  1  0  0  0  0
  2 16  1  0  0  0  0
  2  7  1  0  0  0  0
  3 17  1  0  0  0  0
  3 10  1  0  0  0  0
  4 11  1  0  0  0  0
  5 19  1  0  0  0  0
  6 20  1  0  0  0  0
  6 21  1  0  0  0  0
  7 22  1  0  0  0  0
  7 23  1  0  0  0  0
  8  6  1  0  0  0  0
  8 24  1  0  0  0  0
  9 26  1  0  0  0  0
  9 14  1  0  0  0  0
 10  9  1  0  0  0  0
 10 11  1  1  0  0  0
 11 29  1  0  0  0  0
 11 12  1  1  0  0  0
 12 13  1  1  0  0  0
 12  5  1  0  0  0  0
 13 14  1  6  0  0  0
 13 31  1  0  0  0  0
 13  7  1  0  0  0  0
 14 32  1  6  0  0  0
 14  8  1  0  0  0  0
 15  1  1  0  0  0  0
 18  4  1  0  0  0  0
 25  8  1  0  0  0  0
 27  9  1  0  0  0  0
 28 10  1  0  0  0  0
 30 12  1  0  0  0  0
M  CHG  1  14   1
M  END
$$$$
