2qft_ligand_rnum.pdb
 OpenBabel02151809393D

 16 15  0  0  0  0  0  0  0  0999 V2000
   60.2550    8.7590   26.9360 P   0  0  1  0  0  0  0  0  0  0  0  0
   60.3010   10.2050   27.3000 O   0  0  0  0  0  0  0  0  0  0  0  0
   59.1850    8.4180   25.9600 O   0  5  0  0  0  0  0  0  0  0  0  0
   61.5930    8.2750   26.4780 O   0  5  0  0  0  0  0  0  0  0  0  0
   60.9720    9.9350   31.7150 O   0  0  0  0  0  0  0  0  0  0  0  0
   60.2550    8.4030   33.1350 O   0  5  0  0  0  0  0  0  0  0  0  0
   59.8090    7.8550   28.3380 C   0  0  0  0  0  0  0  0  0  0  0  0
   59.9270    7.9320   30.8730 C   0  0  0  0  0  0  0  0  0  0  0  0
   60.4220    8.8160   31.9980 C   0  0  0  0  0  0  0  0  0  0  0  0
   60.2290    8.5300   29.5610 N   0  3  0  0  0  0  0  0  0  0  0  0
   60.2210    6.8470   28.3150 H   0  0  0  0  0  0  0  0  0  0  0  0
   58.7260    7.7430   28.3900 H   0  0  0  0  0  0  0  0  0  0  0  0
   58.8400    7.9860   30.9400 H   0  0  0  0  0  0  0  0  0  0  0  0
   60.0990    6.8890   31.0390 H   0  0  0  0  0  0  0  0  0  0  0  0
   59.8540    9.4670   29.5440 H   0  0  0  0  0  0  0  0  0  0  0  0
   61.2380    8.5970   29.5190 H   0  0  0  0  0  0  0  0  0  0  0  0
  1  3  2  6  0  0  0
  1  2  1  0  0  0  0
  1  7  1  0  0  0  0
  4  1  1  0  0  0  0
  5  9  2  0  0  0  0
  7 12  1  0  0  0  0
  7 10  1  0  0  0  0
  8 13  1  0  0  0  0
  8 14  1  0  0  0  0
  8  9  1  0  0  0  0
  9  6  1  0  0  0  0
 10  8  1  0  0  0  0
 11  7  1  0  0  0  0
 15 10  1  0  0  0  0
 16 10  1  0  0  0  0
M  CHG  4   3  -1   4  -1   6  -1  10   1
M  END
$$$$
