2zjw_ligand_rnum.pdb
                    3D
 Structure written by MMmdl.
 27 30  0  0  1  0            999 V2000
   36.2990   -4.1210   11.3460 C   0  0  0  0  0  0
   36.7620   -3.9980   10.0510 C   0  0  0  0  0  0
   37.0360   -5.1560    9.3730 C   0  0  0  0  0  0
   36.8540   -6.3910    9.9870 C   0  0  0  0  0  0
   36.4080   -6.4780   11.2130 O   0  0  0  0  0  0
   36.1270   -5.3960   11.8930 C   0  0  0  0  0  0
   37.4950   -5.0300    8.0770 C   0  0  0  0  0  0
   37.8020   -6.1670    7.3410 C   0  0  0  0  0  0
   37.6380   -7.4090    7.9360 C   0  0  0  0  0  0
   37.1730   -7.5170    9.2340 C   0  0  0  0  0  0
   36.9570   -2.7650    9.4290 C   0  0  2  0  0  0
   37.3840   -2.6760    8.2030 O   0  0  0  0  0  0
   37.6500   -3.7590    7.5280 C   0  0  1  0  0  0
   36.0200   -2.9650   12.0640 C   0  0  0  0  0  0
   36.2260   -1.7260   11.4630 C   0  0  0  0  0  0
   36.6900   -1.6180   10.1560 C   0  0  1  0  0  0
   37.0570   -8.7500    9.7080 O   0  0  0  0  0  0
   37.9390   -8.5720    7.2540 O   0  0  0  0  0  0
   38.0940   -3.6720    6.2710 O   0  0  0  0  0  0
   36.8970   -0.3670    9.5960 O   0  0  0  0  0  0
   35.9810   -0.5860   12.1650 O   0  5  0  0  0  0
   35.6540   -5.5010   13.1600 O   0  0  0  0  0  0
   38.1710   -6.1210    6.3270 H   0  0  0  0  0  0
   35.6570   -3.0110   13.0810 H   0  0  0  0  0  0
   36.5690    0.2700   10.2140 H   0  0  0  0  0  0
   37.3259   -9.3789    9.0344 H   0  0  0  0  0  0
   38.2490   -8.3550    6.3717 H   0  0  0  0  0  0
  1  6  1  0  0  0
  1 14  1  0  0  0
  1  2  2  0  0  0
  2  3  1  0  0  0
  2 11  1  0  0  0
  3  4  1  0  0  0
  3  7  2  0  0  0
  4  5  1  0  0  0
  4 10  2  0  0  0
  5  6  1  0  0  0
  6 22  2  0  0  0
  7  8  1  0  0  0
  7 13  1  0  0  0
  8  9  2  0  0  0
  8 23  1  0  0  0
  9 10  1  0  0  0
  9 18  1  0  0  0
 10 17  1  0  0  0
 11 12  1  0  0  0
 11 16  2  0  0  0
 12 13  1  0  0  0
 13 19  2  0  0  0
 14 24  1  0  0  0
 14 15  2  0  0  0
 15 21  1  0  0  0
 15 16  1  0  0  0
 16 20  1  0  0  0
 17 26  1  0  0  0
 18 27  1  0  0  0
 20 25  1  0  0  0
M  CHG  1  21  -1
M  END
> <s_m_entry_id>
2

> <s_m_entry_name>
2zjw_ligand.1

> <s_m_Source_Path>
/home/isabella/workspace/datasets/v2013-refinedset/v2013-coreset/2zjw

> <s_m_Source_File>
2zjw_ligand.sdf

> <i_m_Source_File_Index>
1

$$$$
