2pq9_ligand_rnum.pdb
 OpenBabel02151809393D

 36 36  0  0  1  0  0  0  0  0999 V2000
   56.6600   12.0160   28.0470 C   0  0  0  0  0  0  0  0  0  0  0  0
   55.5100   11.2380   28.3940 C   0  0  0  0  0  0  0  0  0  0  0  0
   55.6810    9.9660   29.2220 C   0  0  2  0  0  0  0  0  0  0  0  0
   57.0390    9.9660   30.0570 C   0  0  2  0  0  0  0  0  0  0  0  0
   58.2410   10.1970   29.0960 C   0  0  1  0  0  0  0  0  0  0  0  0
   58.0540   11.6390   28.4800 C   0  0  0  0  0  0  0  0  0  0  0  0
   56.4650   13.2670   27.2440 C   0  0  0  0  0  0  0  0  0  0  0  0
   55.5560    8.7450   28.2650 O   0  0  0  0  0  0  0  0  0  0  0  0
   57.1100    8.7040   30.7390 O   0  0  0  0  0  0  0  0  0  0  0  0
   59.4620   10.1370   29.8440 O   0  0  0  0  0  0  0  0  0  0  0  0
   55.5690   13.2790   26.4210 O   0  0  0  0  0  0  0  0  0  0  0  0
   57.1910   14.1860   27.4910 O   0  5  0  0  0  0  0  0  0  0  0  0
   54.1380    7.9340   27.9670 P   0  0  2  0  0  0  0  0  0  0  0  0
   53.1900    8.9600   27.3390 O   0  0  0  0  0  0  0  0  0  0  0  0
   53.6550    7.4020   29.3820 O   0  5  0  0  0  0  0  0  0  0  0  0
   54.6280    6.8620   26.9600 O   0  5  0  0  0  0  0  0  0  0  0  0
   60.4060    9.0420   29.7360 C   0  0  2  0  0  0  0  0  0  0  0  0
   59.8280    7.5510   29.6520 C   0  0  0  0  0  0  0  0  0  0  0  0
   61.3200    9.1100   30.9340 C   0  0  0  0  0  0  0  0  0  0  0  0
   61.8590   10.2660   31.0070 O   0  0  0  0  0  0  0  0  0  0  0  0
   61.5080    8.1900   31.7530 O   0  5  0  0  0  0  0  0  0  0  0  0
   61.0700    9.4370   26.9350 P   0  0  0  0  0  0  0  0  0  0  0  0
   62.3110    8.8530   26.2260 O   0  0  0  0  0  0  0  0  0  0  0  0
   60.9740   10.9220   26.7400 O   0  5  0  0  0  0  0  0  0  0  0  0
   59.7920    8.6940   26.4730 O   0  5  0  0  0  0  0  0  0  0  0  0
   61.2860    9.2650   28.5590 O   0  0  0  0  0  0  0  0  0  0  0  0
   58.9060    7.4070   28.7640 F   0  0  0  0  0  0  0  0  0  0  0  0
   60.7910    6.6640   29.5050 F   0  0  0  0  0  0  0  0  0  0  0  0
   54.5140   11.5030   28.0710 H   0  0  0  0  0  0  0  0  0  0  0  0
   54.8490    9.9240   29.9260 H   0  0  0  0  0  0  0  0  0  0  0  0
   57.0100   10.7540   30.8090 H   0  0  0  0  0  0  0  0  0  0  0  0
   58.2140    9.4910   28.2740 H   0  0  0  0  0  0  0  0  0  0  0  0
   58.3470   12.3710   29.2330 H   0  0  0  0  0  0  0  0  0  0  0  0
   58.7430   11.7790   27.6500 H   0  0  0  0  0  0  0  0  0  0  0  0
   57.7590    8.7960   31.4270 H   0  0  0  0  0  0  0  0  0  0  0  0
   59.3470    7.3090   30.5970 H   0  0  0  0  0  0  0  0  0  0  0  0
  1  2  2  0  0  0  0
  1  6  1  0  0  0  0
  2  3  1  0  0  0  0
  3 30  1  0  0  0  0
  3  4  1  1  0  0  0
  4  5  1  6  0  0  0
  4  9  1  0  0  0  0
  4 31  1  0  0  0  0
  5 32  1  6  0  0  0
  5 10  1  0  0  0  0
  6  5  1  0  0  0  0
  6 33  1  0  0  0  0
  7 12  1  0  0  0  0
  7  1  1  0  0  0  0
  8  3  1  0  0  0  0
  9 35  1  0  0  0  0
 11  7  2  0  0  0  0
 13 16  2  6  0  0  0
 13  8  1  0  0  0  0
 13 15  1  0  0  0  0
 14 13  1  0  0  0  0
 17 26  1  6  0  0  0
 17 10  1  0  0  0  0
 17 19  1  0  0  0  0
 18 17  1  0  0  0  0
 18 36  1  0  0  0  0
 19 20  2  0  0  0  0
 19 21  1  0  0  0  0
 22 26  1  0  0  0  0
 23 22  2  0  0  0  0
 24 22  1  0  0  0  0
 25 22  1  0  0  0  0
 27 18  1  0  0  0  0
 28 18  1  0  0  0  0
 29  2  1  0  0  0  0
 34  6  1  0  0  0  0
M  CHG  6  12  -1  15  -1  16  -1  21  -1  24  -1  25  -1
M  END
$$$$
