1hnn_ligand_rnum.pdb
 OpenBabel02151809393D

 27 28  0  0  0  0  0  0  0  0999 V2000
   28.3480   46.0370   16.7830 C   0  0  0  0  0  0  0  0  0  0  0  0
   27.8990   45.5320   15.5700 C   0  0  0  0  0  0  0  0  0  0  0  0
   27.8220   44.1470   15.3850 C   0  0  0  0  0  0  0  0  0  0  0  0
   28.1930   43.2860   16.4100 C   0  0  0  0  0  0  0  0  0  0  0  0
   27.2610   43.4900   13.8470 S   0  0  0  0  0  0  0  0  0  0  0  0
   28.6420   43.7900   17.6160 C   0  0  0  0  0  0  0  0  0  0  0  0
   28.7200   45.1740   17.8070 C   0  0  0  0  0  0  0  0  0  0  0  0
   27.4850   44.4300   12.7700 O   0  0  0  0  0  0  0  0  0  0  0  0
   25.8660   43.1330   13.8730 O   0  0  0  0  0  0  0  0  0  0  0  0
   28.1050   42.1870   13.5730 N   0  0  0  0  0  0  0  0  0  0  0  0
   28.9650   42.8430   18.7440 C   0  0  0  0  0  0  0  0  0  0  0  0
   29.2110   44.8480   20.1940 C   0  0  0  0  0  0  0  0  0  0  0  0
   29.4880   45.7050   18.9780 C   0  0  0  0  0  0  0  0  0  0  0  0
   29.7000   43.4830   19.8600 N   0  3  0  0  0  0  0  0  0  0  0  0
   28.4450   47.1050   16.9020 H   0  0  0  0  0  0  0  0  0  0  0  0
   27.6180   46.1970   14.7700 H   0  0  0  0  0  0  0  0  0  0  0  0
   28.1130   42.2170   16.2760 H   0  0  0  0  0  0  0  0  0  0  0  0
   27.9040   41.8210   12.6430 H   0  0  0  0  0  0  0  0  0  0  0  0
   27.9310   41.4700   14.2770 H   0  0  0  0  0  0  0  0  0  0  0  0
   29.5020   41.9920   18.3530 H   0  0  0  0  0  0  0  0  0  0  0  0
   28.0230   42.4600   19.1390 H   0  0  0  0  0  0  0  0  0  0  0  0
   28.1510   44.8270   20.4520 H   0  0  0  0  0  0  0  0  0  0  0  0
   29.7550   45.2230   21.0610 H   0  0  0  0  0  0  0  0  0  0  0  0
   29.1930   46.7320   19.1870 H   0  0  0  0  0  0  0  0  0  0  0  0
   30.5480   45.6960   18.7300 H   0  0  0  0  0  0  0  0  0  0  0  0
   30.6750   43.5430   19.6070 H   0  0  0  0  0  0  0  0  0  0  0  0
   29.6170   42.8790   20.6740 H   0  0  0  0  0  0  0  0  0  0  0  0
  1 15  1  0  0  0  0
  1  7  2  0  0  0  0
  2  1  1  0  0  0  0
  3  2  2  0  0  0  0
  3  4  1  0  0  0  0
  4  6  2  0  0  0  0
  5  9  2  0  0  0  0
  5  3  1  0  0  0  0
  6  7  1  0  0  0  0
  6 11  1  0  0  0  0
  7 13  1  0  0  0  0
  8  5  2  0  0  0  0
 10  5  1  0  0  0  0
 10 19  1  0  0  0  0
 11 21  1  0  0  0  0
 11 14  1  0  0  0  0
 12 22  1  0  0  0  0
 12 23  1  0  0  0  0
 13 24  1  0  0  0  0
 13 12  1  0  0  0  0
 14 12  1  0  0  0  0
 14 27  1  0  0  0  0
 16  2  1  0  0  0  0
 17  4  1  0  0  0  0
 18 10  1  0  0  0  0
 20 11  1  0  0  0  0
 25 13  1  0  0  0  0
 26 14  1  0  0  0  0
M  CHG  1  14   1
M  END
$$$$
