1o5b_ligand_rnum.pdb
 OpenBabel02151809393D

 21 22  0  0  0  0  0  0  0  0999 V2000
    8.1140   -0.8340   25.7320 C   0  0  0  0  0  0  0  0  0  0  0  0
    8.4340    0.4560   25.3630 C   0  0  0  0  0  0  0  0  0  0  0  0
    7.5200   -1.0380   26.8710 N   0  3  0  0  0  0  0  0  0  0  0  0
    8.4430   -1.7620   24.8810 N   0  0  0  0  0  0  0  0  0  0  0  0
    9.1450    0.8600   23.8020 S   0  0  0  0  0  0  0  0  0  0  0  0
    9.2620    2.5530   24.1340 C   0  0  0  0  0  0  0  0  0  0  0  0
    8.7610    2.7660   25.4100 C   0  0  0  0  0  0  0  0  0  0  0  0
    8.3190    1.6440   26.0560 C   0  0  0  0  0  0  0  0  0  0  0  0
    9.7350    3.5820   23.3530 C   0  0  0  0  0  0  0  0  0  0  0  0
    9.7120    4.8670   23.8710 C   0  0  0  0  0  0  0  0  0  0  0  0
    9.2230    5.0950   25.1450 C   0  0  0  0  0  0  0  0  0  0  0  0
    8.7480    4.0610   25.9310 C   0  0  0  0  0  0  0  0  0  0  0  0
    8.1220    4.5890   27.7890 I   0  0  0  0  0  0  0  0  0  0  0  0
    7.3920   -1.9940   27.1950 H   0  0  0  0  0  0  0  0  0  0  0  0
    7.2920   -0.2690   27.4920 H   0  0  0  0  0  0  0  0  0  0  0  0
    8.3630   -2.7410   25.1430 H   0  0  0  0  0  0  0  0  0  0  0  0
    8.8710   -1.5100   24.0020 H   0  0  0  0  0  0  0  0  0  0  0  0
    7.9150    1.7030   27.0520 H   0  0  0  0  0  0  0  0  0  0  0  0
   10.0950    3.3740   22.3600 H   0  0  0  0  0  0  0  0  0  0  0  0
   10.0630    5.6940   23.2710 H   0  0  0  0  0  0  0  0  0  0  0  0
    9.1750    6.1120   25.5020 H   0  0  0  0  0  0  0  0  0  0  0  0
  1  3  1  0  0  0  0
  2  1  1  0  0  0  0
  2  8  2  0  0  0  0
  3 14  1  0  0  0  0
  3 15  1  0  0  0  0
  4 16  1  0  0  0  0
  4  1  2  0  0  0  0
  5  6  1  0  0  0  0
  5  2  1  0  0  0  0
  6  7  2  0  0  0  0
  7 12  1  0  0  0  0
  7  8  1  0  0  0  0
  8 18  1  0  0  0  0
  9 10  2  0  0  0  0
  9  6  1  0  0  0  0
 10 11  1  0  0  0  0
 11 21  1  0  0  0  0
 11 12  2  0  0  0  0
 12 13  1  0  0  0  0
 17  4  1  0  0  0  0
 19  9  1  0  0  0  0
 20 10  1  0  0  0  0
M  CHG  1   3   1
M  END
$$$$
