2y5h_ligand_rnum.pdb
 OpenBabel02151809393D

 60 64  0  0  1  0  0  0  0  0999 V2000
   -0.6030    6.0040   27.7140 Cl  0  0  0  0  0  0  0  0  0  0  0  0
   -1.4130    7.5200   27.3830 C   0  0  0  0  0  0  0  0  0  0  0  0
   -2.4440    8.0890   28.0850 C   0  0  0  0  0  0  0  0  0  0  0  0
   -2.8590    9.2980   27.4800 C   0  0  0  0  0  0  0  0  0  0  0  0
   -0.8570    8.4830   26.0440 S   0  0  0  0  0  0  0  0  0  0  0  0
   -2.0920    9.6550   26.3770 C   0  0  0  0  0  0  0  0  0  0  0  0
   -2.3260   10.7580   25.4570 C   0  0  0  0  0  0  0  0  0  0  0  0
   -1.7370   10.9830   24.3000 N   0  0  0  0  0  0  0  0  0  0  0  0
   -3.4170   11.5320   25.6860 O   0  0  0  0  0  0  0  0  0  0  0  0
   -3.4240   12.3800   24.5900 C   0  0  0  0  0  0  0  0  0  0  0  0
   -2.4210   12.0540   23.7710 C   0  0  0  0  0  0  0  0  0  0  0  0
   -2.0780   12.6960   22.4510 C   0  0  2  0  0  0  0  0  0  0  0  0
   -3.0750   13.7060   22.0080 N   0  3  2  0  0  0  0  0  0  0  0  0
   -2.7850   13.8590   20.5720 C   0  0  1  0  0  0  0  0  0  0  0  0
   -1.5690   14.8000   20.5060 C   0  0  0  0  0  0  0  0  0  0  0  0
   -1.7360   15.6830   21.7540 C   0  0  0  0  0  0  0  0  0  0  0  0
   -2.8550   15.0490   22.6020 C   0  0  0  0  0  0  0  0  0  0  0  0
   -2.5240   12.4580   20.0290 C   0  0  1  0  0  0  0  0  0  0  0  0
   -2.1300   11.6450   21.2910 C   0  0  2  0  0  0  0  0  0  0  0  0
   -3.2340   10.6000   21.3730 C   0  0  0  0  0  0  0  0  0  0  0  0
   -3.3550    9.6930   22.1790 O   0  0  0  0  0  0  0  0  0  0  0  0
   -3.7950   11.8350   19.5110 C   0  0  0  0  0  0  0  0  0  0  0  0
   -4.4580   12.1260   18.5150 O   0  0  0  0  0  0  0  0  0  0  0  0
   -4.1980   10.7940   20.3700 N   0  0  0  0  0  0  0  0  0  0  0  0
   -5.3870    9.9430   20.2030 C   0  0  0  0  0  0  0  0  0  0  0  0
   -5.1230    8.8510   19.1570 C   0  0  0  0  0  0  0  0  0  0  0  0
   -6.3750    7.9540   19.2090 C   0  0  0  0  0  0  0  0  0  0  0  0
   -6.3660    6.8300   18.1920 N   0  3  0  0  0  0  0  0  0  0  0  0
   -6.3170    7.3980   16.8020 C   0  0  0  0  0  0  0  0  0  0  0  0
   -7.6960    6.1270   18.3350 C   0  0  0  0  0  0  0  0  0  0  0  0
   -5.2350    5.8770   18.3810 C   0  0  0  0  0  0  0  0  0  0  0  0
   -2.9180    7.6720   28.9610 H   0  0  0  0  0  0  0  0  0  0  0  0
   -3.6760    9.8760   27.8730 H   0  0  0  0  0  0  0  0  0  0  0  0
   -4.2110   13.1190   24.5690 H   0  0  0  0  0  0  0  0  0  0  0  0
   -1.0740   13.1180   22.5110 H   0  0  0  0  0  0  0  0  0  0  0  0
   -4.0130   13.3660   22.1630 H   0  0  0  0  0  0  0  0  0  0  0  0
   -3.6360   14.3450   20.0900 H   0  0  0  0  0  0  0  0  0  0  0  0
   -1.5560   15.3830   19.5850 H   0  0  0  0  0  0  0  0  0  0  0  0
   -0.6270   14.2510   20.5540 H   0  0  0  0  0  0  0  0  0  0  0  0
   -1.9810   16.7130   21.4920 H   0  0  0  0  0  0  0  0  0  0  0  0
   -0.7930   15.6990   22.3000 H   0  0  0  0  0  0  0  0  0  0  0  0
   -2.6680   14.9970   23.6660 H   0  0  0  0  0  0  0  0  0  0  0  0
   -3.7730   15.6240   22.4720 H   0  0  0  0  0  0  0  0  0  0  0  0
   -1.7540   12.4450   19.2560 H   0  0  0  0  0  0  0  0  0  0  0  0
   -1.1740   11.1330   21.1760 H   0  0  0  0  0  0  0  0  0  0  0  0
   -6.2300   10.5660   19.8990 H   0  0  0  0  0  0  0  0  0  0  0  0
   -5.6690    9.5060   21.1630 H   0  0  0  0  0  0  0  0  0  0  0  0
   -4.2200    8.3000   19.4180 H   0  0  0  0  0  0  0  0  0  0  0  0
   -4.9690    9.3060   18.1790 H   0  0  0  0  0  0  0  0  0  0  0  0
   -7.2650    8.5670   19.0530 H   0  0  0  0  0  0  0  0  0  0  0  0
   -6.4710    7.5200   20.2060 H   0  0  0  0  0  0  0  0  0  0  0  0
   -6.4790    6.6060   16.0780 H   0  0  0  0  0  0  0  0  0  0  0  0
   -7.0850    8.1570   16.6460 H   0  0  0  0  0  0  0  0  0  0  0  0
   -5.3460    7.8360   16.5710 H   0  0  0  0  0  0  0  0  0  0  0  0
   -7.7820    5.3030   17.6250 H   0  0  0  0  0  0  0  0  0  0  0  0
   -7.8050    5.7090   19.3370 H   0  0  0  0  0  0  0  0  0  0  0  0
   -8.5280    6.8090   18.1580 H   0  0  0  0  0  0  0  0  0  0  0  0
   -5.2310    5.1530   17.5740 H   0  0  0  0  0  0  0  0  0  0  0  0
   -4.2670    6.3690   18.3950 H   0  0  0  0  0  0  0  0  0  0  0  0
   -5.3620    5.3240   19.2990 H   0  0  0  0  0  0  0  0  0  0  0  0
  2  1  1  0  0  0  0
  2  3  2  0  0  0  0
  3 32  1  0  0  0  0
  4 33  1  0  0  0  0
  4  3  1  0  0  0  0
  5  6  1  0  0  0  0
  5  2  1  0  0  0  0
  6  4  2  0  0  0  0
  7  9  1  0  0  0  0
  7  6  1  0  0  0  0
  8  7  2  0  0  0  0
 10  9  1  0  0  0  0
 11  8  1  0  0  0  0
 11 10  2  0  0  0  0
 12 19  1  6  0  0  0
 12 35  1  0  0  0  0
 12 11  1  0  0  0  0
 13 14  1  6  0  0  0
 13 36  1  0  0  0  0
 13 12  1  0  0  0  0
 13 17  1  0  0  0  0
 14 18  1  6  0  0  0
 15 39  1  0  0  0  0
 15 14  1  0  0  0  0
 15 16  1  0  0  0  0
 16 41  1  0  0  0  0
 16 17  1  0  0  0  0
 17 42  1  0  0  0  0
 18 19  1  1  0  0  0
 19 45  1  6  0  0  0
 19 20  1  0  0  0  0
 20 21  2  0  0  0  0
 22 18  1  0  0  0  0
 22 24  1  0  0  0  0
 23 22  2  0  0  0  0
 24 20  1  0  0  0  0
 25 24  1  0  0  0  0
 25 47  1  0  0  0  0
 26 27  1  0  0  0  0
 26 48  1  0  0  0  0
 26 25  1  0  0  0  0
 27 51  1  0  0  0  0
 28 30  1  0  0  0  0
 28 31  1  0  0  0  0
 28 27  1  0  0  0  0
 29 28  1  0  0  0  0
 30 56  1  0  0  0  0
 31 59  1  0  0  0  0
 31 60  1  0  0  0  0
 34 10  1  0  0  0  0
 37 14  1  0  0  0  0
 38 15  1  0  0  0  0
 40 16  1  0  0  0  0
 43 17  1  0  0  0  0
 44 18  1  0  0  0  0
 46 25  1  0  0  0  0
 49 26  1  0  0  0  0
 50 27  1  0  0  0  0
 52 29  1  0  0  0  0
 53 29  1  0  0  0  0
 54 29  1  0  0  0  0
 55 30  1  0  0  0  0
 57 30  1  0  0  0  0
 58 31  1  0  0  0  0
M  CHG  2  13   1  28   1
M  END
$$$$
