2d3u_ligand_rnum.pdb
 OpenBabel02151809393D

 40 42  0  0  0  0  0  0  0  0999 V2000
   12.9300   30.8710   73.5550 C   0  0  0  0  0  0  0  0  0  0  0  0
   12.9040   29.5940   72.9150 C   0  0  0  0  0  0  0  0  0  0  0  0
   11.6750   28.8760   72.8760 C   0  0  0  0  0  0  0  0  0  0  0  0
   10.5040   29.4160   73.4550 C   0  0  0  0  0  0  0  0  0  0  0  0
   10.5200   30.6920   74.0920 C   0  0  0  0  0  0  0  0  0  0  0  0
   11.7530   31.4110   74.1340 C   0  0  0  0  0  0  0  0  0  0  0  0
    6.8840   31.7970   75.1110 C   0  0  0  0  0  0  0  0  0  0  0  0
    7.7330   32.3920   76.0330 C   0  0  0  0  0  0  0  0  0  0  0  0
    9.1080   32.0610   75.7680 C   0  0  0  0  0  0  0  0  0  0  0  0
    9.2770   31.2340   74.6690 C   0  0  0  0  0  0  0  0  0  0  0  0
    7.7570   30.8740   73.9820 S   0  0  0  0  0  0  0  0  0  0  0  0
   14.0830   29.0400   72.3180 C   0  0  0  0  0  0  0  0  0  0  0  0
   15.0430   28.5810   71.8110 N   0  0  0  0  0  0  0  0  0  0  0  0
    5.4020   31.9440   75.1070 C   0  0  0  0  0  0  0  0  0  0  0  0
    4.7680   31.2300   74.3130 O   0  0  0  0  0  0  0  0  0  0  0  0
    4.8680   32.7870   75.8710 O   0  5  0  0  0  0  0  0  0  0  0  0
    7.3010   33.2370   77.1370 N   0  0  0  0  0  0  0  0  0  0  0  0
    8.2820   34.5020   77.6890 S   0  0  0  0  0  0  0  0  0  0  0  0
    7.7750   36.4670   75.7110 C   0  0  0  0  0  0  0  0  0  0  0  0
    8.7330   35.6820   76.4270 C   0  0  0  0  0  0  0  0  0  0  0  0
   10.1250   35.8300   76.1460 C   0  0  0  0  0  0  0  0  0  0  0  0
   10.5780   36.7400   75.1660 C   0  0  0  0  0  0  0  0  0  0  0  0
    9.6350   37.5250   74.4500 C   0  0  0  0  0  0  0  0  0  0  0  0
    8.2460   37.3870   74.7200 C   0  0  0  0  0  0  0  0  0  0  0  0
    6.2860   36.3670   75.9520 C   0  0  0  0  0  0  0  0  0  0  0  0
    9.4810   33.8970   78.2520 O   0  0  0  0  0  0  0  0  0  0  0  0
    7.4830   35.1830   78.6860 O   0  0  0  0  0  0  0  0  0  0  0  0
   13.8570   31.4160   73.6270 H   0  0  0  0  0  0  0  0  0  0  0  0
   11.6320   27.9060   72.4020 H   0  0  0  0  0  0  0  0  0  0  0  0
    9.5910   28.8400   73.4210 H   0  0  0  0  0  0  0  0  0  0  0  0
   11.7910   32.3840   74.5990 H   0  0  0  0  0  0  0  0  0  0  0  0
    9.9280   32.4190   76.3700 H   0  0  0  0  0  0  0  0  0  0  0  0
    6.2990   33.3760   77.1760 H   0  0  0  0  0  0  0  0  0  0  0  0
   10.8510   35.2630   76.6990 H   0  0  0  0  0  0  0  0  0  0  0  0
   11.6340   36.9070   75.0860 H   0  0  0  0  0  0  0  0  0  0  0  0
    9.9840   38.2430   73.7300 H   0  0  0  0  0  0  0  0  0  0  0  0
    7.5430   37.9910   74.1700 H   0  0  0  0  0  0  0  0  0  0  0  0
    5.9390   37.2390   76.5070 H   0  0  0  0  0  0  0  0  0  0  0  0
    5.7600   36.3410   75.0030 H   0  0  0  0  0  0  0  0  0  0  0  0
    5.9900   35.4760   76.5000 H   0  0  0  0  0  0  0  0  0  0  0  0
  1 28  1  0  0  0  0
  1  6  2  0  0  0  0
  2  1  1  0  0  0  0
  3  2  2  0  0  0  0
  3  4  1  0  0  0  0
  4  5  2  0  0  0  0
  5  6  1  0  0  0  0
  5 10  1  0  0  0  0
  6 31  1  0  0  0  0
  7  8  2  0  0  0  0
  8 17  1  0  0  0  0
  9  8  1  0  0  0  0
  9 32  1  0  0  0  0
 10  9  2  0  0  0  0
 11 10  1  0  0  0  0
 11  7  1  0  0  0  0
 12  2  1  0  0  0  0
 13 12  3  0  0  0  0
 14  7  1  0  0  0  0
 14 16  1  0  0  0  0
 15 14  2  0  0  0  0
 17 33  1  0  0  0  0
 17 18  1  0  0  0  0
 18 26  2  0  0  0  0
 18 27  2  0  0  0  0
 19 25  1  0  0  0  0
 19 20  2  0  0  0  0
 20 18  1  0  0  0  0
 21 20  1  0  0  0  0
 21 34  1  0  0  0  0
 22 21  2  0  0  0  0
 23 24  2  0  0  0  0
 23 22  1  0  0  0  0
 24 19  1  0  0  0  0
 25 40  1  0  0  0  0
 25 38  1  0  0  0  0
 29  3  1  0  0  0  0
 30  4  1  0  0  0  0
 35 22  1  0  0  0  0
 36 23  1  0  0  0  0
 37 24  1  0  0  0  0
 39 25  1  0  0  0  0
M  CHG  1  16  -1
M  END
$$$$
