3ueu_ligand_rnum.pdb
 OpenBabel02151809393D

 37 36  0  0  0  0  0  0  0  0999 V2000
   -1.2720    3.8380   19.2090 O   0  0  0  0  0  0  0  0  0  0  0  0
   -0.2330    5.7140   19.5840 O   0  5  0  0  0  0  0  0  0  0  0  0
   -1.2780    5.0930   19.2850 C   0  0  0  0  0  0  0  0  0  0  0  0
   -2.5650    5.8580   18.9950 C   0  0  0  0  0  0  0  0  0  0  0  0
   -2.6420    7.2130   19.7060 C   0  0  0  0  0  0  0  0  0  0  0  0
   -3.2850    8.2950   18.8260 C   0  0  0  0  0  0  0  0  0  0  0  0
   -2.5580    9.6320   18.9390 C   0  0  0  0  0  0  0  0  0  0  0  0
   -3.2940   10.7800   18.2650 C   0  0  0  0  0  0  0  0  0  0  0  0
   -2.6480   12.1070   18.6760 C   0  0  0  0  0  0  0  0  0  0  0  0
   -3.3440   13.3150   18.0570 C   0  0  0  0  0  0  0  0  0  0  0  0
   -2.3690   14.4290   17.7340 C   0  0  0  0  0  0  0  0  0  0  0  0
   -2.9890   15.8240   17.8320 C   0  0  0  0  0  0  0  0  0  0  0  0
   -3.5540   16.2650   16.4980 C   0  0  0  0  0  0  0  0  0  0  0  0
   -3.7430   17.7620   16.4840 C   0  0  0  0  0  0  0  0  0  0  0  0
   -3.4290    5.2460   19.2570 H   0  0  0  0  0  0  0  0  0  0  0  0
   -2.5920    5.9790   17.9120 H   0  0  0  0  0  0  0  0  0  0  0  0
   -1.6580    7.5690   20.0100 H   0  0  0  0  0  0  0  0  0  0  0  0
   -3.1990    7.1090   20.6380 H   0  0  0  0  0  0  0  0  0  0  0  0
   -4.2580    8.4740   19.2340 H   0  0  0  0  0  0  0  0  0  0  0  0
   -3.3950    8.0000   17.7840 H   0  0  0  0  0  0  0  0  0  0  0  0
   -1.5520    9.5440   18.5260 H   0  0  0  0  0  0  0  0  0  0  0  0
   -2.4380    9.8680   19.9960 H   0  0  0  0  0  0  0  0  0  0  0  0
   -4.3470   10.7800   18.5520 H   0  0  0  0  0  0  0  0  0  0  0  0
   -3.2510   10.6610   17.1850 H   0  0  0  0  0  0  0  0  0  0  0  0
   -1.6050   12.0770   18.3620 H   0  0  0  0  0  0  0  0  0  0  0  0
   -2.6330   12.2150   19.7610 H   0  0  0  0  0  0  0  0  0  0  0  0
   -4.1900   13.6440   18.6330 H   0  0  0  0  0  0  0  0  0  0  0  0
   -3.7890   13.0180   17.1060 H   0  0  0  0  0  0  0  0  0  0  0  0
   -1.8740   14.2650   16.7810 H   0  0  0  0  0  0  0  0  0  0  0  0
   -1.5710   14.4030   18.4790 H   0  0  0  0  0  0  0  0  0  0  0  0
   -2.2040   16.5180   18.1380 H   0  0  0  0  0  0  0  0  0  0  0  0
   -3.7550   15.8690   18.5940 H   0  0  0  0  0  0  0  0  0  0  0  0
   -4.5010   15.7900   16.2980 H   0  0  0  0  0  0  0  0  0  0  0  0
   -2.8720   15.9880   15.6980 H   0  0  0  0  0  0  0  0  0  0  0  0
   -4.0650   18.1030   15.5000 H   0  0  0  0  0  0  0  0  0  0  0  0
   -4.5140   18.0450   17.1970 H   0  0  0  0  0  0  0  0  0  0  0  0
   -2.8340   18.3010   16.7400 H   0  0  0  0  0  0  0  0  0  0  0  0
  1  3  2  0  0  0  0
  3  2  1  0  0  0  0
  4 15  1  0  0  0  0
  4  3  1  0  0  0  0
  4  5  1  0  0  0  0
  5 17  1  0  0  0  0
  5 18  1  0  0  0  0
  6  7  1  0  0  0  0
  6 19  1  0  0  0  0
  6  5  1  0  0  0  0
  7 22  1  0  0  0  0
  8 23  1  0  0  0  0
  8  9  1  0  0  0  0
  8  7  1  0  0  0  0
  9 26  1  0  0  0  0
 10 27  1  0  0  0  0
 10  9  1  0  0  0  0
 11 12  1  0  0  0  0
 11 10  1  0  0  0  0
 11 30  1  0  0  0  0
 12 31  1  0  0  0  0
 12 32  1  0  0  0  0
 13 12  1  0  0  0  0
 14 13  1  0  0  0  0
 14 37  1  0  0  0  0
 14 36  1  0  0  0  0
 16  4  1  0  0  0  0
 20  6  1  0  0  0  0
 21  7  1  0  0  0  0
 24  8  1  0  0  0  0
 25  9  1  0  0  0  0
 28 10  1  0  0  0  0
 29 11  1  0  0  0  0
 33 13  1  0  0  0  0
 34 13  1  0  0  0  0
 35 14  1  0  0  0  0
M  CHG  1   2  -1
M  END
$$$$
