2qbp_ligand_rnum.pdb
 OpenBabel02151809393D

 60 63  0  0  0  0  0  0  0  0999 V2000
   44.5640   14.2390    0.6740 S   0  0  0  0  0  0  0  0  0  0  0  0
   44.7660   15.6490    1.7560 C   0  0  0  0  0  0  0  0  0  0  0  0
   45.6900   15.3960    2.6670 C   0  0  0  0  0  0  0  0  0  0  0  0
   46.2550   14.0410    2.5740 C   0  0  0  0  0  0  0  0  0  0  0  0
   45.8210   13.2870    1.5520 C   0  0  0  0  0  0  0  0  0  0  0  0
   44.0600   16.8790    1.4690 C   0  0  0  0  0  0  0  0  0  0  0  0
   43.5980   16.8930    0.3080 O   0  0  0  0  0  0  0  0  0  0  0  0
   43.9340   17.8230    2.2800 O   0  5  0  0  0  0  0  0  0  0  0  0
   46.1250   11.9050    1.1290 C   0  0  0  0  0  0  0  0  0  0  0  0
   47.4420   11.3150    1.3100 C   0  0  0  0  0  0  0  0  0  0  0  0
   47.6400    9.9460    0.9420 C   0  0  0  0  0  0  0  0  0  0  0  0
   46.5390    9.1680    0.3780 C   0  0  0  0  0  0  0  0  0  0  0  0
   45.2230    9.7500    0.1790 C   0  0  0  0  0  0  0  0  0  0  0  0
   45.0420   11.1270    0.5390 C   0  0  0  0  0  0  0  0  0  0  0  0
   47.3890   13.4840    3.9420 Br  0  0  0  0  0  0  0  0  0  0  0  0
   45.9800   16.2840    3.6070 O   0  0  0  0  0  0  0  0  0  0  0  0
   47.1930   16.9880    3.4380 C   0  0  0  0  0  0  0  0  0  0  0  0
   47.4320   17.6890    4.7000 C   0  0  0  0  0  0  0  0  0  0  0  0
   48.5780   18.1510    4.8510 O   0  0  0  0  0  0  0  0  0  0  0  0
   46.5110   17.7930    5.5420 O   0  5  0  0  0  0  0  0  0  0  0  0
   48.9040    9.4960    1.1630 N   0  0  0  0  0  0  0  0  0  0  0  0
   49.1900    8.1380    1.5130 C   0  0  0  0  0  0  0  0  0  0  0  0
   50.7090    7.9840    1.5980 C   0  0  0  0  0  0  0  0  0  0  0  0
   51.1460    6.6380    2.1280 C   0  0  0  0  0  0  0  0  0  0  0  0
   50.3910    6.3890    3.3570 N   0  0  0  0  0  0  0  0  0  0  0  0
   48.9270    6.4400    3.3730 C   0  0  0  0  0  0  0  0  0  0  0  0
   48.4990    7.7770    2.8260 C   0  0  0  0  0  0  0  0  0  0  0  0
   51.1020    5.4460    4.5910 S   0  0  0  0  0  0  0  0  0  0  0  0
   50.2210    5.5670    5.7300 O   0  0  0  0  0  0  0  0  0  0  0  0
   52.4790    5.8920    4.6940 O   0  0  0  0  0  0  0  0  0  0  0  0
   50.8960    3.7760    3.9330 C   0  0  0  0  0  0  0  0  0  0  0  0
   51.2570    2.7890    5.0020 C   0  0  0  0  0  0  0  0  0  0  0  0
   52.6630    2.4580    5.1260 C   0  0  0  0  0  0  0  0  0  0  0  0
   53.0480    1.5950    6.2220 C   0  0  0  0  0  0  0  0  0  0  0  0
   52.0250    1.0640    7.1210 C   0  0  0  0  0  0  0  0  0  0  0  0
   50.6230    1.4160    6.9910 C   0  0  0  0  0  0  0  0  0  0  0  0
   50.2150    2.2910    5.9050 C   0  0  0  0  0  0  0  0  0  0  0  0
   48.2450   11.8990    1.7300 H   0  0  0  0  0  0  0  0  0  0  0  0
   46.7010    8.1370    0.1010 H   0  0  0  0  0  0  0  0  0  0  0  0
   44.4120    9.1690   -0.2350 H   0  0  0  0  0  0  0  0  0  0  0  0
   44.0610   11.5590    0.4080 H   0  0  0  0  0  0  0  0  0  0  0  0
   47.1010   17.7090    2.6240 H   0  0  0  0  0  0  0  0  0  0  0  0
   48.0260   16.3200    3.2140 H   0  0  0  0  0  0  0  0  0  0  0  0
   49.5410   10.1670    1.5690 H   0  0  0  0  0  0  0  0  0  0  0  0
   48.8230    7.4800    0.7240 H   0  0  0  0  0  0  0  0  0  0  0  0
   51.1140    8.7530    2.2580 H   0  0  0  0  0  0  0  0  0  0  0  0
   51.1610    8.1560    0.6200 H   0  0  0  0  0  0  0  0  0  0  0  0
   52.2200    6.6370    2.3160 H   0  0  0  0  0  0  0  0  0  0  0  0
   50.9340    5.8460    1.4090 H   0  0  0  0  0  0  0  0  0  0  0  0
   48.4970    6.3200    4.3650 H   0  0  0  0  0  0  0  0  0  0  0  0
   48.5350    5.6320    2.7550 H   0  0  0  0  0  0  0  0  0  0  0  0
   47.4160    7.7790    2.7060 H   0  0  0  0  0  0  0  0  0  0  0  0
   48.7230    8.5400    3.5740 H   0  0  0  0  0  0  0  0  0  0  0  0
   51.5250    3.6590    3.0510 H   0  0  0  0  0  0  0  0  0  0  0  0
   49.8580    3.6410    3.6310 H   0  0  0  0  0  0  0  0  0  0  0  0
   53.4050    2.8640    4.4540 H   0  0  0  0  0  0  0  0  0  0  0  0
   54.0850    1.3290    6.3650 H   0  0  0  0  0  0  0  0  0  0  0  0
   52.3610    0.4120    7.9020 H   0  0  0  0  0  0  0  0  0  0  0  0
   49.8900    1.0270    7.6820 H   0  0  0  0  0  0  0  0  0  0  0  0
   49.1810    2.5810    5.7870 H   0  0  0  0  0  0  0  0  0  0  0  0
  1  5  1  0  0  0  0
  1  2  1  0  0  0  0
  2  3  2  0  0  0  0
  3 16  1  0  0  0  0
  4  3  1  0  0  0  0
  4 15  1  0  0  0  0
  5  4  2  0  0  0  0
  6  2  1  0  0  0  0
  6  8  1  0  0  0  0
  7  6  2  0  0  0  0
  9 10  1  0  0  0  0
  9  5  1  0  0  0  0
 10 38  1  0  0  0  0
 11 21  1  0  0  0  0
 11 10  2  0  0  0  0
 12 11  1  0  0  0  0
 13 12  2  0  0  0  0
 13 14  1  0  0  0  0
 14  9  2  0  0  0  0
 17 16  1  0  0  0  0
 17 18  1  0  0  0  0
 18 19  2  0  0  0  0
 18 20  1  0  0  0  0
 21 22  1  0  0  0  0
 21 44  1  0  0  0  0
 22 23  1  0  0  0  0
 22 27  1  0  0  0  0
 23 24  1  0  0  0  0
 23 46  1  0  0  0  0
 24 48  1  0  0  0  0
 24 25  1  0  0  0  0
 25 26  1  0  0  0  0
 25 28  1  0  0  0  0
 26 50  1  0  0  0  0
 27 26  1  0  0  0  0
 27 53  1  0  0  0  0
 28 30  2  0  0  0  0
 28 29  2  0  0  0  0
 31 28  1  0  0  0  0
 31 32  1  0  0  0  0
 32 33  2  0  0  0  0
 32 37  1  0  0  0  0
 33 34  1  0  0  0  0
 34 57  1  0  0  0  0
 34 35  2  0  0  0  0
 35 58  1  0  0  0  0
 36 35  1  0  0  0  0
 36 59  1  0  0  0  0
 37 36  2  0  0  0  0
 39 12  1  0  0  0  0
 40 13  1  0  0  0  0
 41 14  1  0  0  0  0
 42 17  1  0  0  0  0
 43 17  1  0  0  0  0
 45 22  1  0  0  0  0
 47 23  1  0  0  0  0
 49 24  1  0  0  0  0
 51 26  1  0  0  0  0
 52 27  1  0  0  0  0
 54 31  1  0  0  0  0
 55 31  1  0  0  0  0
 56 33  1  0  0  0  0
 60 37  1  0  0  0  0
M  CHG  2   8  -1  20  -1
M  END
$$$$
