1nvq_ligand_rnum.pdb
 OpenBabel02151809393D

 63 70  0  0  1  0  0  0  0  0999 V2000
    8.2700    9.9540   17.2910 O   0  0  0  0  0  0  0  0  0  0  0  0
    7.7630    9.3100   18.4550 C   0  0  1  0  0  0  0  0  0  0  0  0
    6.9180   10.1940   19.2270 N   0  0  0  0  0  0  0  0  0  0  0  0
    5.6270    9.8480   19.3640 C   0  0  0  0  0  0  0  0  0  0  0  0
    4.7470   10.4480   19.9630 O   0  0  0  0  0  0  0  0  0  0  0  0
    5.5330    8.5650   18.6030 C   0  0  0  0  0  0  0  0  0  0  0  0
    4.3050    7.7170   18.4090 C   0  0  0  0  0  0  0  0  0  0  0  0
    2.9460    7.7620   18.7970 C   0  0  0  0  0  0  0  0  0  0  0  0
    2.3100    6.5900   18.2270 C   0  0  0  0  0  0  0  0  0  0  0  0
    0.9100    6.3140   18.4170 C   0  0  0  0  0  0  0  0  0  0  0  0
    0.1610    7.2210   19.1810 C   0  0  0  0  0  0  0  0  0  0  0  0
    0.7890    8.3860   19.7510 C   0  0  0  0  0  0  0  0  0  0  0  0
    2.1380    8.6360   19.5570 C   0  0  0  0  0  0  0  0  0  0  0  0
    3.2490    5.8750   17.5380 N   0  0  0  0  0  0  0  0  0  0  0  0
    4.5220    6.5310   17.6060 C   0  0  0  0  0  0  0  0  0  0  0  0
    5.7570    6.2170   17.0610 C   0  0  0  0  0  0  0  0  0  0  0  0
    6.2140    5.1320   16.2200 N   0  0  0  0  0  0  0  0  0  0  0  0
    7.6060    5.2810   15.9270 C   0  0  0  0  0  0  0  0  0  0  0  0
    8.0400    6.4960   16.5930 C   0  0  0  0  0  0  0  0  0  0  0  0
    9.3880    6.8940   16.4620 C   0  0  0  0  0  0  0  0  0  0  0  0
   10.3170    6.1570   15.7160 C   0  0  0  0  0  0  0  0  0  0  0  0
    9.8520    4.9520   15.0620 C   0  0  0  0  0  0  0  0  0  0  0  0
    8.5300    4.5440   15.1750 C   0  0  0  0  0  0  0  0  0  0  0  0
    6.9290    7.0700   17.2760 C   0  0  0  0  0  0  0  0  0  0  0  0
    6.7180    8.2500   18.0830 C   0  0  0  0  0  0  0  0  0  0  0  0
    5.2030    4.0730   15.7860 C   0  0  1  0  0  0  0  0  0  0  0  0
    4.3030    3.8480   16.8550 O   0  0  0  0  0  0  0  0  0  0  0  0
    3.0380    4.4870   17.0640 C   0  0  2  0  0  0  0  0  0  0  0  0
    2.2520    4.5570   15.6950 C   0  0  0  0  0  0  0  0  0  0  0  0
    3.0440    3.9210   14.5170 C   0  0  1  0  0  0  0  0  0  0  0  0
    2.1780    4.1690   13.2170 N   0  3  0  0  0  0  0  0  0  0  0  0
    2.8230    3.5400   12.0170 C   0  0  0  0  0  0  0  0  0  0  0  0
    4.4980    4.5210   14.4210 C   0  0  1  0  0  0  0  0  0  0  0  0
    4.3430    5.9660   14.3770 O   0  0  0  0  0  0  0  0  0  0  0  0
    5.1750    6.5710   13.3990 C   0  0  0  0  0  0  0  0  0  0  0  0
    5.8590    2.7140   15.5650 C   0  0  0  0  0  0  0  0  0  0  0  0
    7.9640    9.4900   16.5230 H   0  0  0  0  0  0  0  0  0  0  0  0
    8.5620    8.8850   19.0630 H   0  0  0  0  0  0  0  0  0  0  0  0
    7.2870   11.0500   19.6250 H   0  0  0  0  0  0  0  0  0  0  0  0
    0.4460    5.4380   17.9880 H   0  0  0  0  0  0  0  0  0  0  0  0
   -0.8920    7.0450   19.3430 H   0  0  0  0  0  0  0  0  0  0  0  0
    0.2000    9.0760   20.3380 H   0  0  0  0  0  0  0  0  0  0  0  0
    2.5530    9.5220   20.0040 H   0  0  0  0  0  0  0  0  0  0  0  0
    9.7140    7.7950   16.9480 H   0  0  0  0  0  0  0  0  0  0  0  0
   11.3440    6.4800   15.6240 H   0  0  0  0  0  0  0  0  0  0  0  0
   10.5410    4.3680   14.4700 H   0  0  0  0  0  0  0  0  0  0  0  0
    8.2410    3.6480   14.6530 H   0  0  0  0  0  0  0  0  0  0  0  0
    2.4880    3.9440   17.8160 H   0  0  0  0  0  0  0  0  0  0  0  0
    1.9960    5.5940   15.4670 H   0  0  0  0  0  0  0  0  0  0  0  0
    1.3050    4.0350   15.8300 H   0  0  0  0  0  0  0  0  0  0  0  0
    3.0990    2.8420   14.6690 H   0  0  0  0  0  0  0  0  0  0  0  0
    2.0890    5.1640   13.0520 H   0  0  0  0  0  0  0  0  0  0  0  0
    1.2410    3.8030   13.3590 H   0  0  0  0  0  0  0  0  0  0  0  0
    2.0770    3.1040   11.3570 H   0  0  0  0  0  0  0  0  0  0  0  0
    3.4070    4.2750   11.4640 H   0  0  0  0  0  0  0  0  0  0  0  0
    3.4850    2.7220   12.3030 H   0  0  0  0  0  0  0  0  0  0  0  0
    5.0510    4.1380   13.5610 H   0  0  0  0  0  0  0  0  0  0  0  0
    5.0940    7.6560   13.4540 H   0  0  0  0  0  0  0  0  0  0  0  0
    6.2180    6.2860   13.5220 H   0  0  0  0  0  0  0  0  0  0  0  0
    4.8140    6.2470   12.4390 H   0  0  0  0  0  0  0  0  0  0  0  0
    5.0990    1.9330   15.5390 H   0  0  0  0  0  0  0  0  0  0  0  0
    6.3990    2.6750   14.6220 H   0  0  0  0  0  0  0  0  0  0  0  0
    6.5420    2.5090   16.3880 H   0  0  0  0  0  0  0  0  0  0  0  0
  1  2  1  0  0  0  0
  2 38  1  1  0  0  0
  2  3  1  0  0  0  0
  3  4  1  0  0  0  0
  3 39  1  0  0  0  0
  4  5  2  0  0  0  0
  6  4  1  0  0  0  0
  7  6  1  0  0  0  0
  7  8  1  0  0  0  0
  8 13  2  0  0  0  0
  9 10  2  0  0  0  0
  9  8  1  0  0  0  0
 10 11  1  0  0  0  0
 11 41  1  0  0  0  0
 11 12  2  0  0  0  0
 12 42  1  0  0  0  0
 13 12  1  0  0  0  0
 13 43  1  0  0  0  0
 14 15  1  0  0  0  0
 14  9  1  0  0  0  0
 15  7  2  0  0  0  0
 16 24  2  0  0  0  0
 16 15  1  0  0  0  0
 17 16  1  0  0  0  0
 18 17  1  0  0  0  0
 18 19  2  0  0  0  0
 19 24  1  0  0  0  0
 20 19  1  0  0  0  0
 20 44  1  0  0  0  0
 21 20  2  0  0  0  0
 22 23  2  0  0  0  0
 22 21  1  0  0  0  0
 23 18  1  0  0  0  0
 24 25  1  0  0  0  0
 25  2  1  0  0  0  0
 25  6  2  0  0  0  0
 26 33  1  6  0  0  0
 26 17  1  0  0  0  0
 26 27  1  0  0  0  0
 27 28  1  0  0  0  0
 28 14  1  0  0  0  0
 28 48  1  1  0  0  0
 29 50  1  0  0  0  0
 29 28  1  0  0  0  0
 30 33  1  6  0  0  0
 30 51  1  0  0  0  0
 30 29  1  0  0  0  0
 31 53  1  0  0  0  0
 31 30  1  0  0  0  0
 32 56  1  0  0  0  0
 32 31  1  0  0  0  0
 33 57  1  6  0  0  0
 34 33  1  0  0  0  0
 35 58  1  0  0  0  0
 35 59  1  0  0  0  0
 35 34  1  0  0  0  0
 36 26  1  0  0  0  0
 36 63  1  0  0  0  0
 37  1  1  0  0  0  0
 40 10  1  0  0  0  0
 45 21  1  0  0  0  0
 46 22  1  0  0  0  0
 47 23  1  0  0  0  0
 49 29  1  0  0  0  0
 52 31  1  0  0  0  0
 54 32  1  0  0  0  0
 55 32  1  0  0  0  0
 60 35  1  0  0  0  0
 61 36  1  0  0  0  0
 62 36  1  0  0  0  0
M  CHG  1  31   1
M  END
$$$$
