3myg_ligand_rnum.pdb
 OpenBabel02151809393D

 57 60  0  0  1  0  0  0  0  0999 V2000
   -6.6090   28.8490   76.3490 C   0  0  0  0  0  0  0  0  0  0  0  0
   -2.8040   32.8750   78.9790 N   0  0  0  0  0  0  0  0  0  0  0  0
   -1.9810   36.2590   84.9640 O   0  0  0  0  0  0  0  0  0  0  0  0
   -2.4400   33.0800   81.7570 S   0  0  0  0  0  0  0  0  0  0  0  0
   -5.6390   29.7710   79.1770 C   0  0  0  0  0  0  0  0  0  0  0  0
   -4.0140   31.6090   76.5240 N   0  0  0  0  0  0  0  0  0  0  0  0
   -5.1610   30.3470   80.3300 C   0  0  0  0  0  0  0  0  0  0  0  0
   -5.1630   30.2680   77.9830 N   0  0  0  0  0  0  0  0  0  0  0  0
    1.1490   36.3440   84.0230 C   0  0  0  0  0  0  0  0  0  0  0  0
   -7.7370   27.2780   75.2780 N   0  0  0  0  0  0  0  0  0  0  0  0
   -3.7390   31.8510   79.0280 C   0  0  0  0  0  0  0  0  0  0  0  0
   -8.4020   27.6320   76.3930 N   0  0  0  0  0  0  0  0  0  0  0  0
   -4.2480   31.2730   77.8630 C   0  0  0  0  0  0  0  0  0  0  0  0
   -1.4840   34.1490   82.3750 N   0  0  0  0  0  0  0  0  0  0  0  0
   -5.5580   29.8780   76.7210 C   0  0  0  0  0  0  0  0  0  0  0  0
   -4.2480   31.3870   80.2250 N   0  0  0  0  0  0  0  0  0  0  0  0
   -7.7640   28.5980   77.0850 C   0  0  0  0  0  0  0  0  0  0  0  0
   -0.0080   36.5430   83.1470 N   0  3  2  0  0  0  0  0  0  0  0  0
   -4.8200   30.7450   75.8730 C   0  0  0  0  0  0  0  0  0  0  0  0
   -6.6150   27.9960   75.2040 C   0  0  0  0  0  0  0  0  0  0  0  0
   -2.1950   33.4680   80.0870 C   0  0  0  0  0  0  0  0  0  0  0  0
   -1.2640   34.5130   80.0930 C   0  0  0  0  0  0  0  0  0  0  0  0
    0.1020   35.9410   81.7610 C   0  0  0  0  0  0  0  0  0  0  0  0
   -0.8930   34.8650   81.3910 C   0  0  0  0  0  0  0  0  0  0  0  0
   -0.8090   37.7650   83.3870 C   0  0  0  0  0  0  0  0  0  0  0  0
    1.9300   35.0620   84.0150 C   0  0  0  0  0  0  0  0  0  0  0  0
   -1.7150   37.6350   84.6330 C   0  0  0  0  0  0  0  0  0  0  0  0
   -1.8400   38.0430   82.3480 C   0  0  0  0  0  0  0  0  0  0  0  0
   -5.5830   29.8750   81.6780 C   0  0  0  0  0  0  0  0  0  0  0  0
    0.0680   39.0490   83.4020 C   0  0  0  0  0  0  0  0  0  0  0  0
   -2.6030   33.2490   78.0600 H   0  0  0  0  0  0  0  0  0  0  0  0
   -2.6200   35.9160   84.3560 H   0  0  0  0  0  0  0  0  0  0  0  0
   -6.3350   28.9420   79.1730 H   0  0  0  0  0  0  0  0  0  0  0  0
    0.8550   36.5570   85.0510 H   0  0  0  0  0  0  0  0  0  0  0  0
    1.8690   37.1180   83.7580 H   0  0  0  0  0  0  0  0  0  0  0  0
   -9.3010   27.2190   76.6370 H   0  0  0  0  0  0  0  0  0  0  0  0
   -8.1710   29.0030   77.9990 H   0  0  0  0  0  0  0  0  0  0  0  0
   -0.6430   35.8650   83.5490 H   0  0  0  0  0  0  0  0  0  0  0  0
   -4.8580   30.7870   74.8000 H   0  0  0  0  0  0  0  0  0  0  0  0
   -5.9150   27.8890   74.3890 H   0  0  0  0  0  0  0  0  0  0  0  0
   -0.8680   35.0010   79.2160 H   0  0  0  0  0  0  0  0  0  0  0  0
    1.0960   35.5490   81.5780 H   0  0  0  0  0  0  0  0  0  0  0  0
    0.0880   36.7470   81.0450 H   0  0  0  0  0  0  0  0  0  0  0  0
    2.8430   35.1980   84.5960 H   0  0  0  0  0  0  0  0  0  0  0  0
    1.3530   34.3260   84.5670 H   0  0  0  0  0  0  0  0  0  0  0  0
    2.2550   34.7060   83.0420 H   0  0  0  0  0  0  0  0  0  0  0  0
   -1.1680   38.0280   85.4900 H   0  0  0  0  0  0  0  0  0  0  0  0
   -2.6470   38.2020   84.6040 H   0  0  0  0  0  0  0  0  0  0  0  0
   -2.4380   38.9310   82.5630 H   0  0  0  0  0  0  0  0  0  0  0  0
   -1.3680   38.2300   81.3920 H   0  0  0  0  0  0  0  0  0  0  0  0
   -2.5120   37.1950   82.2390 H   0  0  0  0  0  0  0  0  0  0  0  0
   -5.0250   30.3800   82.4670 H   0  0  0  0  0  0  0  0  0  0  0  0
   -6.6450   30.0680   81.8310 H   0  0  0  0  0  0  0  0  0  0  0  0
   -5.4100   28.8030   81.7680 H   0  0  0  0  0  0  0  0  0  0  0  0
   -0.5380   39.9520   83.4890 H   0  0  0  0  0  0  0  0  0  0  0  0
    0.7570   39.0620   84.2470 H   0  0  0  0  0  0  0  0  0  0  0  0
    0.6600   39.1390   82.4900 H   0  0  0  0  0  0  0  0  0  0  0  0
  1 15  1  0  0  0  0
  1 17  2  0  0  0  0
  2 11  1  0  0  0  0
  2 21  1  0  0  0  0
  4 14  1  0  0  0  0
  5  7  2  0  0  0  0
  6 13  2  0  0  0  0
  7 29  1  0  0  0  0
  8  5  1  0  0  0  0
  9 34  1  0  0  0  0
 10 12  1  0  0  0  0
 11 16  2  0  0  0  0
 12 36  1  0  0  0  0
 12 17  1  0  0  0  0
 13  8  1  0  0  0  0
 13 11  1  0  0  0  0
 15  8  1  0  0  0  0
 16  7  1  0  0  0  0
 17 37  1  0  0  0  0
 18 25  1  0  0  0  0
 18 38  1  1  0  0  0
 18  9  1  0  0  0  0
 19  6  1  0  0  0  0
 19 15  2  0  0  0  0
 20 10  2  0  0  0  0
 20  1  1  0  0  0  0
 21 22  2  0  0  0  0
 21  4  1  0  0  0  0
 22 24  1  0  0  0  0
 23 18  1  0  0  0  0
 24 23  1  0  0  0  0
 24 14  2  0  0  0  0
 25 30  1  0  0  0  0
 25 27  1  0  0  0  0
 26  9  1  0  0  0  0
 26 45  1  0  0  0  0
 26 44  1  0  0  0  0
 27  3  1  0  0  0  0
 27 47  1  0  0  0  0
 28 49  1  0  0  0  0
 28 25  1  0  0  0  0
 29 54  1  0  0  0  0
 29 53  1  0  0  0  0
 29 52  1  0  0  0  0
 30 55  1  0  0  0  0
 30 56  1  0  0  0  0
 31  2  1  0  0  0  0
 32  3  1  0  0  0  0
 33  5  1  0  0  0  0
 35  9  1  0  0  0  0
 39 19  1  0  0  0  0
 40 20  1  0  0  0  0
 41 22  1  0  0  0  0
 42 23  1  0  0  0  0
 43 23  1  0  0  0  0
 46 26  1  0  0  0  0
 48 27  1  0  0  0  0
 50 28  1  0  0  0  0
 51 28  1  0  0  0  0
 57 30  1  0  0  0  0
M  CHG  1  18   1
M  END
$$$$
