3kgp_ligand_rnum.pdb
 OpenBabel02151809393D

 20 20  0  0  0  0  0  0  0  0999 V2000
  -26.8620   86.4380  -12.0030 C   0  0  0  0  0  0  0  0  0  0  0  0
  -26.0450   85.9370  -11.2960 O   0  0  0  0  0  0  0  0  0  0  0  0
  -27.9970   86.9950  -11.5950 C   0  0  0  0  0  0  0  0  0  0  0  0
  -32.0180   89.9830  -10.9120 N   0  3  0  0  0  0  0  0  0  0  0  0
  -28.2980   86.9990  -10.1870 C   0  0  0  0  0  0  0  0  0  0  0  0
  -29.4900   87.5790   -9.7190 C   0  0  0  0  0  0  0  0  0  0  0  0
  -30.3970   88.1590  -10.6310 C   0  0  0  0  0  0  0  0  0  0  0  0
  -30.1070   88.1560  -12.0110 C   0  0  0  0  0  0  0  0  0  0  0  0
  -28.9210   87.5800  -12.4910 C   0  0  0  0  0  0  0  0  0  0  0  0
  -31.6800   88.7790  -10.1280 C   0  0  0  0  0  0  0  0  0  0  0  0
  -26.3340   86.3040  -13.1500 O   0  5  0  0  0  0  0  0  0  0  0  0
  -32.8960   90.3710  -10.5980 H   0  0  0  0  0  0  0  0  0  0  0  0
  -31.2940   90.6780  -10.7840 H   0  0  0  0  0  0  0  0  0  0  0  0
  -32.0840   89.7520  -11.8930 H   0  0  0  0  0  0  0  0  0  0  0  0
  -27.5990   86.5940   -9.4830 H   0  0  0  0  0  0  0  0  0  0  0  0
  -29.7160   87.5750   -8.6740 H   0  0  0  0  0  0  0  0  0  0  0  0
  -30.7950   88.5800  -12.7270 H   0  0  0  0  0  0  0  0  0  0  0  0
  -28.7220   87.5880  -13.5540 H   0  0  0  0  0  0  0  0  0  0  0  0
  -32.5090   88.1580  -10.3470 H   0  0  0  0  0  0  0  0  0  0  0  0
  -31.6710   88.9310   -9.0520 H   0  0  0  0  0  0  0  0  0  0  0  0
  1  3  1  0  0  0  0
  1  2  1  0  0  0  0
  3  5  2  0  0  0  0
  4 13  1  0  0  0  0
  4 12  1  0  0  0  0
  4 10  1  0  0  0  0
  5  6  1  0  0  0  0
  5 15  1  0  0  0  0
  6 16  1  0  0  0  0
  7 10  1  0  0  0  0
  7  6  2  0  0  0  0
  8  7  1  0  0  0  0
  9  8  2  0  0  0  0
  9  3  1  0  0  0  0
 10 20  1  0  0  0  0
 11  1  2  0  0  0  0
 14  4  1  0  0  0  0
 17  8  1  0  0  0  0
 18  9  1  0  0  0  0
 19 10  1  0  0  0  0
M  CHG  2   4   1  11  -1
M  END
$$$$
