1u1b_ligand_rnum.pdb
 OpenBabel02151809393D

 74 78  0  0  1  0  0  0  0  0999 V2000
  -30.2210  -29.4080   17.2920 P   0  0  1  0  0  0  0  0  0  0  0  0
  -31.3890  -30.1680   17.9270 O   0  0  0  0  0  0  0  0  0  0  0  0
  -30.3730  -29.0440   15.8110 O   0  5  0  0  0  0  0  0  0  0  0  0
  -29.9020  -28.0700   18.0980 O   0  0  0  0  0  0  0  0  0  0  0  0
  -28.1590  -30.8560   18.7490 P   0  0  1  0  0  0  0  0  0  0  0  0
  -27.0860  -29.9510   19.2030 O   0  0  0  0  0  0  0  0  0  0  0  0
  -29.2100  -31.2550   19.7120 O   0  5  0  0  0  0  0  0  0  0  0  0
  -28.8710  -30.2140   17.4950 O   0  0  0  0  0  0  0  0  0  0  0  0
  -34.8930  -26.7760   18.1550 P   0  0  2  0  0  0  0  0  0  0  0  0
  -34.7020  -26.9210   19.6630 O   0  0  0  0  0  0  0  0  0  0  0  0
  -36.1220  -25.9620   17.7740 O   0  5  0  0  0  0  0  0  0  0  0  0
  -34.8950  -28.1500   17.4600 O   0  5  0  0  0  0  0  0  0  0  0  0
  -29.7730  -23.9820   16.1300 N   0  0  0  0  0  0  0  0  0  0  0  0
  -28.8580  -24.4270   15.1830 C   0  0  0  0  0  0  0  0  0  0  0  0
  -28.7370  -25.6860   14.6560 N   0  0  0  0  0  0  0  0  0  0  0  0
  -27.7210  -25.7640   13.7410 C   0  0  0  0  0  0  0  0  0  0  0  0
  -26.8770  -24.7630   13.3350 N   0  0  0  0  0  0  0  0  0  0  0  0
  -27.0260  -23.5070   13.8830 C   0  0  0  0  0  0  0  0  0  0  0  0
  -26.2020  -22.5460   13.4760 N   0  0  0  0  0  0  0  0  0  0  0  0
  -28.0660  -23.3020   14.8620 C   0  0  0  0  0  0  0  0  0  0  0  0
  -28.4730  -22.1930   15.5880 N   0  0  0  0  0  0  0  0  0  0  0  0
  -29.4760  -22.6410   16.3160 C   0  0  0  0  0  0  0  0  0  0  0  0
  -30.8270  -27.5380   19.0200 C   0  0  0  0  0  0  0  0  0  0  0  0
  -31.4240  -26.2850   18.4610 C   0  0  1  0  0  0  0  0  0  0  0  0
  -30.3690  -25.3940   17.9690 O   0  0  0  0  0  0  0  0  0  0  0  0
  -30.8710  -24.6990   16.8490 C   0  0  2  0  0  0  0  0  0  0  0  0
  -31.6670  -25.7980   16.1180 C   0  0  2  0  0  0  0  0  0  0  0  0
  -32.5430  -25.2970   15.1170 O   0  0  0  0  0  0  0  0  0  0  0  0
  -32.3640  -26.5250   17.2780 C   0  0  2  0  0  0  0  0  0  0  0  0
  -33.6160  -25.9150   17.6040 O   0  0  0  0  0  0  0  0  0  0  0  0
  -25.7810  -33.8130   14.1660 O   0  0  0  0  0  0  0  0  0  0  0  0
  -27.0380  -33.6820   14.8750 C   0  0  0  0  0  0  0  0  0  0  0  0
  -26.8140  -33.6990   16.3790 C   0  0  1  0  0  0  0  0  0  0  0  0
  -25.5540  -34.3540   16.6930 O   0  0  0  0  0  0  0  0  0  0  0  0
  -24.8450  -33.5810   17.6400 C   0  0  2  0  0  0  0  0  0  0  0  0
  -25.2930  -32.1420   17.4180 C   0  0  0  0  0  0  0  0  0  0  0  0
  -26.7470  -32.3010   17.0050 C   0  0  2  0  0  0  0  0  0  0  0  0
  -27.5880  -32.2610   18.1600 O   0  0  0  0  0  0  0  0  0  0  0  0
  -25.4210  -32.9050   12.8410 P   0  0  2  0  0  0  0  0  0  0  0  0
  -24.3250  -33.6930   12.0980 O   0  0  0  0  0  0  0  0  0  0  0  0
  -24.9230  -31.5400   13.3680 O   0  5  0  0  0  0  0  0  0  0  0  0
  -26.7240  -32.7970   12.0290 O   0  5  0  0  0  0  0  0  0  0  0  0
  -23.3680  -33.7610   17.4380 N   0  0  0  0  0  0  0  0  0  0  0  0
  -22.7850  -33.7800   16.1450 C   0  0  0  0  0  0  0  0  0  0  0  0
  -22.5700  -33.9130   18.5980 C   0  0  0  0  0  0  0  0  0  0  0  0
  -23.0220  -33.9050   19.7200 O   0  0  0  0  0  0  0  0  0  0  0  0
  -21.2080  -34.0720   18.3510 N   0  0  0  0  0  0  0  0  0  0  0  0
  -20.5700  -34.0950   17.0950 C   0  0  0  0  0  0  0  0  0  0  0  0
  -19.3450  -34.2320   17.0580 O   0  0  0  0  0  0  0  0  0  0  0  0
  -21.4570  -33.9380   15.9370 C   0  0  0  0  0  0  0  0  0  0  0  0
  -20.9140  -33.9420   14.5430 C   0  0  0  0  0  0  0  0  0  0  0  0
  -27.5650  -26.7320   13.2880 H   0  0  0  0  0  0  0  0  0  0  0  0
  -26.3110  -21.5940   13.8020 H   0  0  0  0  0  0  0  0  0  0  0  0
  -25.4750  -22.7630   12.8110 H   0  0  0  0  0  0  0  0  0  0  0  0
  -29.9740  -22.0930   17.0870 H   0  0  0  0  0  0  0  0  0  0  0  0
  -30.3280  -27.3690   19.9670 H   0  0  0  0  0  0  0  0  0  0  0  0
  -31.6410  -28.2140   19.2560 H   0  0  0  0  0  0  0  0  0  0  0  0
  -31.9610  -25.7650   19.2560 H   0  0  0  0  0  0  0  0  0  0  0  0
  -31.5330  -23.9040   17.2000 H   0  0  0  0  0  0  0  0  0  0  0  0
  -30.9600  -26.4830   15.6560 H   0  0  0  0  0  0  0  0  0  0  0  0
  -33.3090  -24.9610   15.5600 H   0  0  0  0  0  0  0  0  0  0  0  0
  -32.4970  -27.5790   17.0390 H   0  0  0  0  0  0  0  0  0  0  0  0
  -27.6410  -34.5440   14.5910 H   0  0  0  0  0  0  0  0  0  0  0  0
  -27.5960  -32.8010   14.5540 H   0  0  0  0  0  0  0  0  0  0  0  0
  -27.6250  -34.2570   16.8500 H   0  0  0  0  0  0  0  0  0  0  0  0
  -25.1330  -33.9630   18.6210 H   0  0  0  0  0  0  0  0  0  0  0  0
  -24.7260  -31.7210   16.5870 H   0  0  0  0  0  0  0  0  0  0  0  0
  -25.1320  -31.5350   18.3080 H   0  0  0  0  0  0  0  0  0  0  0  0
  -27.0370  -31.5140   16.3070 H   0  0  0  0  0  0  0  0  0  0  0  0
  -23.4430  -33.6550   15.2970 H   0  0  0  0  0  0  0  0  0  0  0  0
  -20.6100  -34.2020   19.1610 H   0  0  0  0  0  0  0  0  0  0  0  0
  -20.4530  -34.9050   14.3220 H   0  0  0  0  0  0  0  0  0  0  0  0
  -21.6860  -33.7590   13.7940 H   0  0  0  0  0  0  0  0  0  0  0  0
  -20.1570  -33.1650   14.4330 H   0  0  0  0  0  0  0  0  0  0  0  0
  1  3  2  6  0  0  0
  1  8  1  0  0  0  0
  1  2  1  0  0  0  0
  1  4  1  0  0  0  0
  4 23  1  0  0  0  0
  5  6  2  1  0  0  0
  5  7  1  0  0  0  0
  8  5  1  0  0  0  0
  9 12  2  6  0  0  0
  9 10  1  0  0  0  0
 11  9  1  0  0  0  0
 13 22  1  0  0  0  0
 13 26  1  0  0  0  0
 14 13  1  0  0  0  0
 15 14  1  0  0  0  0
 16 15  2  0  0  0  0
 17 16  1  0  0  0  0
 17 18  2  0  0  0  0
 18 20  1  0  0  0  0
 19 53  1  0  0  0  0
 19 18  1  0  0  0  0
 20 14  2  0  0  0  0
 20 21  1  0  0  0  0
 21 22  2  0  0  0  0
 22 55  1  0  0  0  0
 23 57  1  0  0  0  0
 23 56  1  0  0  0  0
 24 29  1  6  0  0  0
 24 23  1  0  0  0  0
 24 58  1  0  0  0  0
 25 24  1  0  0  0  0
 26 27  1  6  0  0  0
 26 59  1  0  0  0  0
 26 25  1  0  0  0  0
 27 29  1  1  0  0  0
 28 61  1  0  0  0  0
 28 27  1  0  0  0  0
 29 62  1  6  0  0  0
 29 30  1  0  0  0  0
 30  9  1  0  0  0  0
 31 32  1  0  0  0  0
 32 33  1  0  0  0  0
 33 34  1  0  0  0  0
 33 65  1  0  0  0  0
 33 37  1  1  0  0  0
 34 35  1  0  0  0  0
 35 66  1  1  0  0  0
 36 35  1  0  0  0  0
 36 68  1  0  0  0  0
 37 69  1  6  0  0  0
 37 36  1  0  0  0  0
 37 38  1  0  0  0  0
 38  5  1  0  0  0  0
 39 42  2  6  0  0  0
 39 41  1  0  0  0  0
 39 31  1  0  0  0  0
 40 39  1  0  0  0  0
 43 35  1  0  0  0  0
 43 45  1  0  0  0  0
 44 43  1  0  0  0  0
 45 46  2  0  0  0  0
 47 45  1  0  0  0  0
 47 71  1  0  0  0  0
 48 47  1  0  0  0  0
 49 48  2  0  0  0  0
 50 44  2  0  0  0  0
 50 48  1  0  0  0  0
 51 50  1  0  0  0  0
 52 16  1  0  0  0  0
 54 19  1  0  0  0  0
 60 27  1  0  0  0  0
 63 32  1  0  0  0  0
 64 32  1  0  0  0  0
 67 36  1  0  0  0  0
 70 44  1  0  0  0  0
 72 51  1  0  0  0  0
 73 51  1  0  0  0  0
 74 51  1  0  0  0  0
M  CHG  6   3  -1   7  -1  11  -1  12  -1  41  -1  42  -1
M  END
$$$$
