2iwx_ligand_rnum.pdb
 OpenBabel02151809393D

 45 46  0  0  0  0  0  0  0  0999 V2000
   55.2130   75.9430   -5.7160 C   0  0  0  0  0  0  0  0  0  0  0  0
   55.1850   76.8410   -4.5140 C   0  0  0  0  0  0  0  0  0  0  0  0
   54.3080   77.9400   -4.5250 C   0  0  0  0  0  0  0  0  0  0  0  0
   54.2500   78.8390   -3.4690 C   0  0  0  0  0  0  0  0  0  0  0  0
   55.1110   78.6130   -2.3920 C   0  0  0  0  0  0  0  0  0  0  0  0
   55.9470   77.5310   -2.4050 C   0  0  0  0  0  0  0  0  0  0  0  0
   56.0390   76.6130   -3.4390 C   0  0  0  0  0  0  0  0  0  0  0  0
   57.0120   75.4290   -3.3490 C   0  0  0  0  0  0  0  0  0  0  0  0
   58.3680   75.6650   -3.9470 C   0  0  0  0  0  0  0  0  0  0  0  0
   58.8980   77.0470   -4.2040 C   0  0  0  0  0  0  0  0  0  0  0  0
   60.3080   76.9840   -4.8030 C   0  0  0  0  0  0  0  0  0  0  0  0
   60.8100   78.3620   -5.2040 C   0  0  0  0  0  0  0  0  0  0  0  0
   59.9570   79.0080   -6.2950 C   0  0  0  0  0  0  0  0  0  0  0  0
   60.0570   78.2250   -7.6030 C   0  0  0  0  0  0  0  0  0  0  0  0
   58.7230   77.5900   -7.9270 C   0  0  0  0  0  0  0  0  0  0  0  0
   58.6180   76.2670   -8.0280 C   0  0  0  0  0  0  0  0  0  0  0  0
   57.2910   75.6270   -8.3670 C   0  0  0  0  0  0  0  0  0  0  0  0
   56.6900   74.7670   -7.2600 C   0  0  0  0  0  0  0  0  0  0  0  0
   54.2500   75.6110   -6.3730 O   0  0  0  0  0  0  0  0  0  0  0  0
   53.4440   78.1320   -5.5890 O   0  0  0  0  0  0  0  0  0  0  0  0
   55.1350   79.4940   -1.3390 O   0  0  0  0  0  0  0  0  0  0  0  0
   56.9420   77.2720   -0.9640 Cl  0  0  0  0  0  0  0  0  0  0  0  0
   59.0370   74.6520   -4.1670 O   0  0  0  0  0  0  0  0  0  0  0  0
   56.5320   75.5970   -6.0790 O   0  0  0  0  0  0  0  0  0  0  0  0
   53.5790   79.6860   -3.4820 H   0  0  0  0  0  0  0  0  0  0  0  0
   56.5740   74.5690   -3.8440 H   0  0  0  0  0  0  0  0  0  0  0  0
   57.1400   75.1150   -2.3150 H   0  0  0  0  0  0  0  0  0  0  0  0
   58.9010   77.6170   -3.2750 H   0  0  0  0  0  0  0  0  0  0  0  0
   58.2030   77.5360   -4.8840 H   0  0  0  0  0  0  0  0  0  0  0  0
   60.3440   76.3090   -5.6580 H   0  0  0  0  0  0  0  0  0  0  0  0
   60.9950   76.5680   -4.0650 H   0  0  0  0  0  0  0  0  0  0  0  0
   61.8460   78.2920   -5.5370 H   0  0  0  0  0  0  0  0  0  0  0  0
   60.8210   79.0100   -4.3270 H   0  0  0  0  0  0  0  0  0  0  0  0
   60.3670   80.0030   -6.4640 H   0  0  0  0  0  0  0  0  0  0  0  0
   58.9270   79.1830   -5.9820 H   0  0  0  0  0  0  0  0  0  0  0  0
   60.8550   77.4820   -7.5800 H   0  0  0  0  0  0  0  0  0  0  0  0
   60.3140   78.8900   -8.4240 H   0  0  0  0  0  0  0  0  0  0  0  0
   57.8750   78.2440   -8.0750 H   0  0  0  0  0  0  0  0  0  0  0  0
   59.4650   75.6150   -7.8710 H   0  0  0  0  0  0  0  0  0  0  0  0
   57.4380   75.0140   -9.2560 H   0  0  0  0  0  0  0  0  0  0  0  0
   56.5710   76.3960   -8.6470 H   0  0  0  0  0  0  0  0  0  0  0  0
   57.3760   73.9570   -7.0130 H   0  0  0  0  0  0  0  0  0  0  0  0
   55.7660   74.2940   -7.5940 H   0  0  0  0  0  0  0  0  0  0  0  0
   52.8210   78.8480   -5.4770 H   0  0  0  0  0  0  0  0  0  0  0  0
   55.8050   79.2810   -0.7070 H   0  0  0  0  0  0  0  0  0  0  0  0
  1  2  1  0  0  0  0
  2  7  1  0  0  0  0
  3  2  2  0  0  0  0
  3  4  1  0  0  0  0
  4  5  2  0  0  0  0
  5 21  1  0  0  0  0
  6  5  1  0  0  0  0
  6 22  1  0  0  0  0
  7  8  1  0  0  0  0
  7  6  2  0  0  0  0
  8 27  1  0  0  0  0
  9  8  1  0  0  0  0
 10  9  1  0  0  0  0
 10 28  1  0  0  0  0
 11 10  1  0  0  0  0
 11 31  1  0  0  0  0
 12 11  1  0  0  0  0
 12 33  1  0  0  0  0
 13 35  1  0  0  0  0
 13 12  1  0  0  0  0
 14 36  1  0  0  0  0
 14 13  1  0  0  0  0
 15 14  1  0  0  0  0
 16 15  2  0  0  0  0
 16 39  1  0  0  0  0
 17 16  1  0  0  0  0
 17 18  1  0  0  0  0
 18 42  1  0  0  0  0
 18 24  1  0  0  0  0
 19  1  2  0  0  0  0
 20 44  1  0  0  0  0
 20  3  1  0  0  0  0
 21 45  1  0  0  0  0
 23  9  2  0  0  0  0
 24  1  1  0  0  0  0
 25  4  1  0  0  0  0
 26  8  1  0  0  0  0
 29 10  1  0  0  0  0
 30 11  1  0  0  0  0
 32 12  1  0  0  0  0
 34 13  1  0  0  0  0
 37 14  1  0  0  0  0
 38 15  1  0  0  0  0
 40 17  1  0  0  0  0
 41 17  1  0  0  0  0
 43 18  1  0  0  0  0
M  END
$$$$
