3fv1_ligand_rnum.pdb
 OpenBabel02151809393D

 40 41  0  0  1  0  0  0  0  0999 V2000
   -9.0150   11.3910   19.7050 C   0  0  0  0  0  0  0  0  0  0  0  0
   -9.9920   12.4710   19.8030 N   0  0  0  0  0  0  0  0  0  0  0  0
  -10.0650   13.2430   21.0470 C   0  0  2  0  0  0  0  0  0  0  0  0
  -11.2010   14.2510   20.9770 C   0  0  2  0  0  0  0  0  0  0  0  0
  -11.1390   14.9900   19.7440 O   0  0  0  0  0  0  0  0  0  0  0  0
  -11.1220   15.2350   22.1390 C   0  0  0  0  0  0  0  0  0  0  0  0
   -9.9040   15.9730   22.0770 O   0  0  0  0  0  0  0  0  0  0  0  0
   -8.7580   15.1170   22.2720 C   0  0  2  0  0  0  0  0  0  0  0  0
   -7.5280   15.8850   21.8370 C   0  0  0  0  0  0  0  0  0  0  0  0
   -8.7380   13.9400   21.3060 C   0  0  2  0  0  0  0  0  0  0  0  0
   -8.2900   14.5050   20.0750 O   0  0  0  0  0  0  0  0  0  0  0  0
   -7.4600   15.6540   20.3290 C   0  0  1  0  0  0  0  0  0  0  0  0
   -8.0510   16.8610   19.6090 C   0  0  0  0  0  0  0  0  0  0  0  0
   -9.2220   16.7820   19.1390 O   0  0  0  0  0  0  0  0  0  0  0  0
   -7.3530   17.8920   19.4920 O   0  5  0  0  0  0  0  0  0  0  0  0
   -6.0250   15.3570   19.9050 C   0  0  0  0  0  0  0  0  0  0  0  0
   -5.7980   15.2430   18.3960 C   0  0  1  0  0  0  0  0  0  0  0  0
   -4.3360   15.4470   18.1430 C   0  0  0  0  0  0  0  0  0  0  0  0
   -3.6970   14.5950   17.4910 O   0  0  0  0  0  0  0  0  0  0  0  0
   -3.8250   16.4790   18.6080 O   0  5  0  0  0  0  0  0  0  0  0  0
   -6.2230   13.9540   17.8620 N   0  3  0  0  0  0  0  0  0  0  0  0
   -9.1140   10.8650   18.7590 H   0  0  0  0  0  0  0  0  0  0  0  0
   -7.9920   11.7600   19.7770 H   0  0  0  0  0  0  0  0  0  0  0  0
   -9.1790   10.6590   20.4920 H   0  0  0  0  0  0  0  0  0  0  0  0
   -9.8310   13.1210   19.0340 H   0  0  0  0  0  0  0  0  0  0  0  0
  -10.2670   12.5740   21.8840 H   0  0  0  0  0  0  0  0  0  0  0  0
  -12.1320   13.6910   21.0070 H   0  0  0  0  0  0  0  0  0  0  0  0
  -10.3340   15.5000   19.7230 H   0  0  0  0  0  0  0  0  0  0  0  0
  -11.2600   14.7600   23.0960 H   0  0  0  0  0  0  0  0  0  0  0  0
  -11.9300   15.9620   22.0620 H   0  0  0  0  0  0  0  0  0  0  0  0
   -8.7040   14.7950   23.3130 H   0  0  0  0  0  0  0  0  0  0  0  0
   -6.6600   15.4650   22.3380 H   0  0  0  0  0  0  0  0  0  0  0  0
   -7.5520   16.9350   22.1120 H   0  0  0  0  0  0  0  0  0  0  0  0
   -7.9830   13.2230   21.6280 H   0  0  0  0  0  0  0  0  0  0  0  0
   -5.7460   14.4150   20.3590 H   0  0  0  0  0  0  0  0  0  0  0  0
   -5.4070   16.1150   20.3890 H   0  0  0  0  0  0  0  0  0  0  0  0
   -6.3600   15.9940   17.8640 H   0  0  0  0  0  0  0  0  0  0  0  0
   -6.0350   13.9360   16.8690 H   0  0  0  0  0  0  0  0  0  0  0  0
   -5.7100   13.2060   18.3080 H   0  0  0  0  0  0  0  0  0  0  0  0
   -7.2170   13.8320   18.0100 H   0  0  0  0  0  0  0  0  0  0  0  0
  1 23  1  0  0  0  0
  1  2  1  0  0  0  0
  1 24  1  0  0  0  0
  2  3  1  0  0  0  0
  3  4  1  6  0  0  0
  3 26  1  0  0  0  0
  4 27  1  1  0  0  0
  4  6  1  0  0  0  0
  5  4  1  0  0  0  0
  6 29  1  0  0  0  0
  7  6  1  0  0  0  0
  7  8  1  0  0  0  0
  8 10  1  6  0  0  0
  8 31  1  0  0  0  0
  9 33  1  0  0  0  0
  9  8  1  0  0  0  0
  9 32  1  0  0  0  0
 10  3  1  6  0  0  0
 10 34  1  0  0  0  0
 11 12  1  0  0  0  0
 11 10  1  0  0  0  0
 12 13  1  6  0  0  0
 12  9  1  0  0  0  0
 14 13  2  0  0  0  0
 15 13  1  0  0  0  0
 16 12  1  0  0  0  0
 16 35  1  0  0  0  0
 16 36  1  0  0  0  0
 17 37  1  6  0  0  0
 17 16  1  0  0  0  0
 18 17  1  0  0  0  0
 18 20  1  0  0  0  0
 19 18  2  0  0  0  0
 21 40  1  0  0  0  0
 21 39  1  0  0  0  0
 21 17  1  0  0  0  0
 22  1  1  0  0  0  0
 25  2  1  0  0  0  0
 28  5  1  0  0  0  0
 30  6  1  0  0  0  0
 38 21  1  0  0  0  0
M  CHG  3  15  -1  20  -1  21   1
M  END
$$$$
