3mss_ligand_rnum.pdb
 OpenBabel02151809393D

 42 43  0  0  1  0  0  0  0  0999 V2000
  -11.2200   -3.2570  -32.8550 N   0  3  0  0  0  0  0  0  0  0  0  0
  -11.7960   -3.2280  -31.5030 C   0  0  1  0  0  0  0  0  0  0  0  0
  -10.9210   -2.3020  -30.5940 C   0  0  0  0  0  0  0  0  0  0  0  0
   -9.4190   -2.6690  -30.6740 C   0  0  0  0  0  0  0  0  0  0  0  0
   -8.5230   -1.8830  -31.4210 C   0  0  0  0  0  0  0  0  0  0  0  0
   -7.1530   -2.2020  -31.5140 C   0  0  0  0  0  0  0  0  0  0  0  0
   -6.6630   -3.3380  -30.8330 C   0  0  0  0  0  0  0  0  0  0  0  0
   -7.5440   -4.1240  -30.0780 C   0  0  0  0  0  0  0  0  0  0  0  0
   -8.9170   -3.7940  -29.9950 C   0  0  0  0  0  0  0  0  0  0  0  0
   -5.3060   -3.6910  -30.8590 O   0  0  0  0  0  0  0  0  0  0  0  0
   -4.7980   -4.9980  -30.5120 C   0  0  0  0  0  0  0  0  0  0  0  0
   -3.2950   -4.8830  -30.5210 C   0  0  0  0  0  0  0  0  0  0  0  0
   -2.6650   -3.6910  -30.1680 C   0  0  0  0  0  0  0  0  0  0  0  0
   -1.2710   -3.6230  -30.1650 C   0  0  0  0  0  0  0  0  0  0  0  0
   -0.5240   -4.7450  -30.5980 C   0  0  0  0  0  0  0  0  0  0  0  0
   -1.1880   -5.8980  -31.0060 C   0  0  0  0  0  0  0  0  0  0  0  0
   -2.5670   -5.9950  -30.9590 C   0  0  0  0  0  0  0  0  0  0  0  0
  -13.2270   -2.7410  -31.5430 C   0  0  0  0  0  0  0  0  0  0  0  0
  -13.3660   -1.5930  -31.9460 O   0  0  0  0  0  0  0  0  0  0  0  0
  -14.2810   -3.5390  -31.1410 N   0  0  0  0  0  0  0  0  0  0  0  0
  -15.6800   -3.0700  -31.1660 C   0  0  0  0  0  0  0  0  0  0  0  0
  -11.7410   -3.9010  -33.4320 H   0  0  0  0  0  0  0  0  0  0  0  0
  -11.2770   -2.3300  -33.2520 H   0  0  0  0  0  0  0  0  0  0  0  0
  -10.2530   -3.5460  -32.8030 H   0  0  0  0  0  0  0  0  0  0  0  0
  -11.7740   -4.2450  -31.1100 H   0  0  0  0  0  0  0  0  0  0  0  0
  -11.2470   -2.3760  -29.5550 H   0  0  0  0  0  0  0  0  0  0  0  0
  -11.0310   -1.2520  -30.8730 H   0  0  0  0  0  0  0  0  0  0  0  0
   -8.8860   -1.0070  -31.9390 H   0  0  0  0  0  0  0  0  0  0  0  0
   -6.4830   -1.5810  -32.0900 H   0  0  0  0  0  0  0  0  0  0  0  0
   -7.2090   -4.9900  -29.5310 H   0  0  0  0  0  0  0  0  0  0  0  0
   -9.5780   -4.4100  -29.4030 H   0  0  0  0  0  0  0  0  0  0  0  0
   -5.1540   -5.7480  -31.2190 H   0  0  0  0  0  0  0  0  0  0  0  0
   -5.1090   -5.2770  -29.5300 H   0  0  0  0  0  0  0  0  0  0  0  0
   -3.2380   -2.8280  -29.8640 H   0  0  0  0  0  0  0  0  0  0  0  0
   -0.7700   -2.7150  -29.8630 H   0  0  0  0  0  0  0  0  0  0  0  0
    0.5550   -4.7000  -30.6310 H   0  0  0  0  0  0  0  0  0  0  0  0
   -0.6410   -6.7330  -31.3800 H   0  0  0  0  0  0  0  0  0  0  0  0
   -3.0620   -6.9040  -31.2680 H   0  0  0  0  0  0  0  0  0  0  0  0
  -14.1020   -4.4760  -30.8080 H   0  0  0  0  0  0  0  0  0  0  0  0
  -16.3440   -3.8570  -30.8090 H   0  0  0  0  0  0  0  0  0  0  0  0
  -15.8080   -2.1980  -30.5240 H   0  0  0  0  0  0  0  0  0  0  0  0
  -15.9820   -2.8030  -32.1790 H   0  0  0  0  0  0  0  0  0  0  0  0
  1 24  1  0  0  0  0
  1  2  1  0  0  0  0
  2 25  1  1  0  0  0
  2  3  1  0  0  0  0
  3 26  1  0  0  0  0
  4  3  1  0  0  0  0
  4  9  2  0  0  0  0
  5  4  1  0  0  0  0
  6  5  2  0  0  0  0
  6  7  1  0  0  0  0
  7  8  2  0  0  0  0
  8  9  1  0  0  0  0
  8 30  1  0  0  0  0
  9 31  1  0  0  0  0
 10  7  1  0  0  0  0
 10 11  1  0  0  0  0
 11 33  1  0  0  0  0
 12 11  1  0  0  0  0
 12 13  2  0  0  0  0
 13 14  1  0  0  0  0
 13 34  1  0  0  0  0
 14 35  1  0  0  0  0
 15 14  2  0  0  0  0
 16 17  2  0  0  0  0
 16 15  1  0  0  0  0
 17 12  1  0  0  0  0
 18  2  1  0  0  0  0
 18 20  1  0  0  0  0
 19 18  2  0  0  0  0
 20 39  1  0  0  0  0
 21 20  1  0  0  0  0
 21 40  1  0  0  0  0
 21 41  1  0  0  0  0
 22  1  1  0  0  0  0
 23  1  1  0  0  0  0
 27  3  1  0  0  0  0
 28  5  1  0  0  0  0
 29  6  1  0  0  0  0
 32 11  1  0  0  0  0
 36 15  1  0  0  0  0
 37 16  1  0  0  0  0
 38 17  1  0  0  0  0
 42 21  1  0  0  0  0
M  CHG  1   1   1
M  END
$$$$
