4g8m_ligand_rnum.pdb
 OpenBabel02151809393D

 22 22  0  0  1  0  0  0  0  0999 V2000
    5.7850   25.8130   20.9120 C   0  0  0  0  0  0  0  0  0  0  0  0
    4.8530   25.1800   20.3670 O   0  0  0  0  0  0  0  0  0  0  0  0
    6.3420   25.3880   21.9490 O   0  5  0  0  0  0  0  0  0  0  0  0
    6.2570   27.1350   20.2690 C   0  0  2  0  0  0  0  0  0  0  0  0
    7.6860   25.4090   17.6040 C   0  0  0  0  0  0  0  0  0  0  0  0
    6.4760   25.4020   17.3190 O   0  0  0  0  0  0  0  0  0  0  0  0
    8.5500   25.2250   16.7240 O   0  5  0  0  0  0  0  0  0  0  0  0
    8.1300   25.6480   19.0650 C   0  0  1  0  0  0  0  0  0  0  0  0
    9.5980   25.4850   19.1450 N   0  3  0  0  0  0  0  0  0  0  0  0
    7.6510   27.0270   19.5990 C   0  0  2  0  0  0  0  0  0  0  0  0
    8.2680   27.6350   20.8750 C   0  0  0  0  0  0  0  0  0  0  0  0
    6.8680   28.1110   21.2990 C   0  0  0  0  0  0  0  0  0  0  0  0
    5.5110   27.5740   19.6080 H   0  0  0  0  0  0  0  0  0  0  0  0
    7.7510   24.8200   19.6540 H   0  0  0  0  0  0  0  0  0  0  0  0
    9.8840   25.5320   20.1160 H   0  0  0  0  0  0  0  0  0  0  0  0
    9.8510   24.5780   18.7740 H   0  0  0  0  0  0  0  0  0  0  0  0
   10.0600   26.2100   18.6130 H   0  0  0  0  0  0  0  0  0  0  0  0
    7.7140   27.7690   18.8190 H   0  0  0  0  0  0  0  0  0  0  0  0
    8.9890   28.4320   20.6960 H   0  0  0  0  0  0  0  0  0  0  0  0
    8.6590   26.8950   21.5690 H   0  0  0  0  0  0  0  0  0  0  0  0
    6.6220   27.9280   22.3460 H   0  0  0  0  0  0  0  0  0  0  0  0
    6.7010   29.1560   21.0380 H   0  0  0  0  0  0  0  0  0  0  0  0
  1  3  1  0  0  0  0
  2  1  2  0  0  0  0
  4 10  1  6  0  0  0
  4  1  1  0  0  0  0
  4 12  1  0  0  0  0
  5  8  1  0  0  0  0
  6  5  1  0  0  0  0
  7  5  2  0  0  0  0
  8  9  1  0  0  0  0
  8 10  1  0  0  0  0
  8 14  1  1  0  0  0
  9 15  1  0  0  0  0
 10 18  1  6  0  0  0
 10 11  1  0  0  0  0
 11 12  1  0  0  0  0
 11 20  1  0  0  0  0
 12 21  1  0  0  0  0
 13  4  1  0  0  0  0
 16  9  1  0  0  0  0
 17  9  1  0  0  0  0
 19 11  1  0  0  0  0
 22 12  1  0  0  0  0
M  CHG  3   3  -1   7  -1   9   1
M  END
$$$$
