2j62_ligand_rnum.pdb
 OpenBabel02151809393D

 55 57  0  0  1  0  0  0  0  0999 V2000
   37.1090   40.4740   22.5240 C   0  0  0  0  0  0  0  0  0  0  0  0
   36.5190   41.7320   21.8600 C   0  0  0  0  0  0  0  0  0  0  0  0
   37.0330   42.9790   22.5650 C   0  0  0  0  0  0  0  0  0  0  0  0
   34.9720   41.7350   21.8580 C   0  0  0  0  0  0  0  0  0  0  0  0
   34.3250   40.7810   22.3200 O   0  0  0  0  0  0  0  0  0  0  0  0
   34.4150   42.8330   21.3140 N   0  0  0  0  0  0  0  0  0  0  0  0
   32.9330   43.0140   21.2010 C   0  0  2  0  0  0  0  0  0  0  0  0
   32.2780   43.1860   22.5720 C   0  0  1  0  0  0  0  0  0  0  0  0
   32.2910   44.5600   22.8210 O   0  0  0  0  0  0  0  0  0  0  0  0
   30.8330   42.6510   22.6560 C   0  0  2  0  0  0  0  0  0  0  0  0
   30.3000   42.8810   23.9690 O   0  0  0  0  0  0  0  0  0  0  0  0
   30.8690   41.1540   22.3300 C   0  0  1  0  0  0  0  0  0  0  0  0
   29.5680   40.3700   22.6510 C   0  0  0  0  0  0  0  0  0  0  0  0
   28.5320   40.8310   21.8280 O   0  0  0  0  0  0  0  0  0  0  0  0
   31.2900   41.0200   20.9070 N   0  0  0  0  0  0  0  0  0  0  0  0
   30.9460   40.1880   19.9240 C   0  0  0  0  0  0  0  0  0  0  0  0
   32.2770   41.8850   20.3670 C   0  0  0  0  0  0  0  0  0  0  0  0
   32.4450   41.5340   19.0930 N   0  3  0  0  0  0  0  0  0  0  0  0
   31.6290   40.5070   18.8130 C   0  0  0  0  0  0  0  0  0  0  0  0
   31.5430   39.7580   17.4630 C   0  0  0  0  0  0  0  0  0  0  0  0
   31.3720   40.7370   16.3070 C   0  0  0  0  0  0  0  0  0  0  0  0
   29.9540   41.3460   16.2500 C   0  0  0  0  0  0  0  0  0  0  0  0
   28.8900   40.6290   15.6690 C   0  0  0  0  0  0  0  0  0  0  0  0
   27.6060   41.1840   15.5930 C   0  0  0  0  0  0  0  0  0  0  0  0
   27.4000   42.4620   16.1150 C   0  0  0  0  0  0  0  0  0  0  0  0
   28.4610   43.1830   16.6960 C   0  0  0  0  0  0  0  0  0  0  0  0
   29.7370   42.6290   16.7710 C   0  0  0  0  0  0  0  0  0  0  0  0
   36.7590   39.6060   21.9840 H   0  0  0  0  0  0  0  0  0  0  0  0
   38.1980   40.4690   22.4970 H   0  0  0  0  0  0  0  0  0  0  0  0
   36.7930   40.3710   23.5600 H   0  0  0  0  0  0  0  0  0  0  0  0
   36.8360   41.7570   20.8170 H   0  0  0  0  0  0  0  0  0  0  0  0
   36.3210   43.7990   22.6550 H   0  0  0  0  0  0  0  0  0  0  0  0
   37.3510   42.7390   23.5730 H   0  0  0  0  0  0  0  0  0  0  0  0
   37.9140   43.3790   22.0700 H   0  0  0  0  0  0  0  0  0  0  0  0
   35.0140   43.5600   20.9350 H   0  0  0  0  0  0  0  0  0  0  0  0
   32.7630   43.9080   20.6050 H   0  0  0  0  0  0  0  0  0  0  0  0
   32.8620   42.7020   23.3560 H   0  0  0  0  0  0  0  0  0  0  0  0
   32.0460   44.7120   23.7270 H   0  0  0  0  0  0  0  0  0  0  0  0
   30.1920   43.1710   21.9450 H   0  0  0  0  0  0  0  0  0  0  0  0
   29.3700   43.0760   23.8840 H   0  0  0  0  0  0  0  0  0  0  0  0
   31.6590   40.6920   22.9210 H   0  0  0  0  0  0  0  0  0  0  0  0
   29.2810   40.4720   23.6980 H   0  0  0  0  0  0  0  0  0  0  0  0
   29.7130   39.3040   22.4720 H   0  0  0  0  0  0  0  0  0  0  0  0
   27.9140   41.3230   22.3680 H   0  0  0  0  0  0  0  0  0  0  0  0
   30.2150   39.4090   20.0780 H   0  0  0  0  0  0  0  0  0  0  0  0
   33.0750   42.0000   18.4410 H   0  0  0  0  0  0  0  0  0  0  0  0
   30.7340   39.0270   17.4850 H   0  0  0  0  0  0  0  0  0  0  0  0
   32.4680   39.2010   17.3220 H   0  0  0  0  0  0  0  0  0  0  0  0
   31.5340   40.2060   15.3690 H   0  0  0  0  0  0  0  0  0  0  0  0
   32.1250   41.5230   16.3310 H   0  0  0  0  0  0  0  0  0  0  0  0
   29.0630   39.6370   15.2780 H   0  0  0  0  0  0  0  0  0  0  0  0
   26.7920   40.6270   15.1740 H   0  0  0  0  0  0  0  0  0  0  0  0
   26.4160   42.8990   16.0610 H   0  0  0  0  0  0  0  0  0  0  0  0
   28.3030   44.1750   17.0900 H   0  0  0  0  0  0  0  0  0  0  0  0
   30.5440   43.1870   17.2210 H   0  0  0  0  0  0  0  0  0  0  0  0
  1 30  1  0  0  0  0
  2  1  1  0  0  0  0
  2  3  1  0  0  0  0
  3 32  1  0  0  0  0
  3 33  1  0  0  0  0
  4  2  1  0  0  0  0
  4  5  2  0  0  0  0
  6  4  1  0  0  0  0
  7  6  1  0  0  0  0
  7  8  1  1  0  0  0
  8 10  1  6  0  0  0
  8  9  1  0  0  0  0
  8 37  1  0  0  0  0
  9 38  1  0  0  0  0
 10 12  1  6  0  0  0
 10 11  1  0  0  0  0
 12 13  1  0  0  0  0
 12 41  1  1  0  0  0
 13 42  1  0  0  0  0
 14 44  1  0  0  0  0
 14 13  1  0  0  0  0
 15 12  1  0  0  0  0
 16 45  1  0  0  0  0
 16 15  1  0  0  0  0
 17 15  1  0  0  0  0
 17  7  1  0  0  0  0
 18 17  2  0  0  0  0
 19 18  1  0  0  0  0
 19 16  2  0  0  0  0
 20 47  1  0  0  0  0
 20 19  1  0  0  0  0
 21 50  1  0  0  0  0
 21 20  1  0  0  0  0
 22 21  1  0  0  0  0
 22 27  2  0  0  0  0
 23 22  1  0  0  0  0
 24 23  2  0  0  0  0
 24 25  1  0  0  0  0
 25 26  2  0  0  0  0
 26 27  1  0  0  0  0
 26 54  1  0  0  0  0
 27 55  1  0  0  0  0
 28  1  1  0  0  0  0
 29  1  1  0  0  0  0
 31  2  1  0  0  0  0
 34  3  1  0  0  0  0
 35  6  1  0  0  0  0
 36  7  1  0  0  0  0
 39 10  1  0  0  0  0
 40 11  1  0  0  0  0
 43 13  1  0  0  0  0
 46 18  1  0  0  0  0
 48 20  1  0  0  0  0
 49 21  1  0  0  0  0
 51 23  1  0  0  0  0
 52 24  1  0  0  0  0
 53 25  1  0  0  0  0
M  CHG  1  18   1
M  END
$$$$
