3u9q_ligand_rnum.pdb
 OpenBabel02151809393D

 31 30  0  0  0  0  0  0  0  0999 V2000
    3.5090    3.8460   20.2220 C   0  0  0  0  0  0  0  0  0  0  0  0
    2.5500    4.0310   19.4740 O   0  0  0  0  0  0  0  0  0  0  0  0
    3.3640    3.1980   21.5910 C   0  0  0  0  0  0  0  0  0  0  0  0
    2.5490    1.8960   21.5000 C   0  0  0  0  0  0  0  0  0  0  0  0
    2.8540    0.8800   22.5970 C   0  0  0  0  0  0  0  0  0  0  0  0
    1.7040   -0.0950   22.7900 C   0  0  0  0  0  0  0  0  0  0  0  0
    1.8960   -0.9800   24.0220 C   0  0  0  0  0  0  0  0  0  0  0  0
    0.9460   -2.1600   24.0050 C   0  0  0  0  0  0  0  0  0  0  0  0
    1.3000   -3.2130   25.0520 C   0  0  0  0  0  0  0  0  0  0  0  0
    0.1070   -3.4990   25.9530 C   0  0  0  0  0  0  0  0  0  0  0  0
    0.2580   -2.8530   27.3100 C   0  0  0  0  0  0  0  0  0  0  0  0
    4.6950    4.2400   19.7470 O   0  5  0  0  0  0  0  0  0  0  0  0
    2.9060    3.8980   22.2900 H   0  0  0  0  0  0  0  0  0  0  0  0
    4.3660    2.9860   21.9660 H   0  0  0  0  0  0  0  0  0  0  0  0
    2.7090    1.4070   20.5380 H   0  0  0  0  0  0  0  0  0  0  0  0
    1.4930    2.1690   21.5320 H   0  0  0  0  0  0  0  0  0  0  0  0
    3.0350    1.4060   23.5360 H   0  0  0  0  0  0  0  0  0  0  0  0
    3.7690    0.3510   22.3400 H   0  0  0  0  0  0  0  0  0  0  0  0
    1.6150   -0.7090   21.8920 H   0  0  0  0  0  0  0  0  0  0  0  0
    0.7590    0.4400   22.8880 H   0  0  0  0  0  0  0  0  0  0  0  0
    1.8250   -0.4070   24.9410 H   0  0  0  0  0  0  0  0  0  0  0  0
    2.8950   -1.3800   23.9530 H   0  0  0  0  0  0  0  0  0  0  0  0
    0.9710   -2.6370   23.0250 H   0  0  0  0  0  0  0  0  0  0  0  0
   -0.0660   -1.7750   24.1270 H   0  0  0  0  0  0  0  0  0  0  0  0
    2.1680   -2.9170   25.6400 H   0  0  0  0  0  0  0  0  0  0  0  0
    1.5940   -4.1310   24.5410 H   0  0  0  0  0  0  0  0  0  0  0  0
    0.0490   -4.5770   26.1060 H   0  0  0  0  0  0  0  0  0  0  0  0
   -0.8450   -3.2230   25.5000 H   0  0  0  0  0  0  0  0  0  0  0  0
    1.1840   -3.1330   27.7930 H   0  0  0  0  0  0  0  0  0  0  0  0
    0.2510   -1.7750   27.1980 H   0  0  0  0  0  0  0  0  0  0  0  0
   -0.5450   -3.1290   27.9880 H   0  0  0  0  0  0  0  0  0  0  0  0
  1  3  1  0  0  0  0
  2  1  2  0  0  0  0
  3 14  1  0  0  0  0
  3 13  1  0  0  0  0
  4 16  1  0  0  0  0
  4  3  1  0  0  0  0
  4  5  1  0  0  0  0
  5  6  1  0  0  0  0
  5 17  1  0  0  0  0
  6 20  1  0  0  0  0
  6  7  1  0  0  0  0
  7 21  1  0  0  0  0
  8  7  1  0  0  0  0
  8 24  1  0  0  0  0
  8  9  1  0  0  0  0
  9 25  1  0  0  0  0
  9 10  1  0  0  0  0
 10 27  1  0  0  0  0
 10 11  1  0  0  0  0
 11 29  1  0  0  0  0
 11 31  1  0  0  0  0
 12  1  1  0  0  0  0
 15  4  1  0  0  0  0
 18  5  1  0  0  0  0
 19  6  1  0  0  0  0
 22  7  1  0  0  0  0
 23  8  1  0  0  0  0
 26  9  1  0  0  0  0
 28 10  1  0  0  0  0
 30 11  1  0  0  0  0
M  CHG  1  12  -1
M  END
$$$$
