3nq3_ligand_rnum.pdb
 OpenBabel02151809393D

 31 30  0  0  0  0  0  0  0  0999 V2000
    8.0400   -0.6010    0.8160 C   0  0  0  0  0  0  0  0  0  0  0  0
    7.2490   -1.1220   -0.0040 O   0  0  0  0  0  0  0  0  0  0  0  0
    9.5150   -0.6680    0.5160 C   0  0  0  0  0  0  0  0  0  0  0  0
   10.0030   -2.1100    0.5520 C   0  0  0  0  0  0  0  0  0  0  0  0
   11.3370   -2.2170   -0.1660 C   0  0  0  0  0  0  0  0  0  0  0  0
   12.1390   -3.4130    0.3320 C   0  0  0  0  0  0  0  0  0  0  0  0
   13.5250   -3.3600   -0.2960 C   0  0  0  0  0  0  0  0  0  0  0  0
   14.2350   -4.6990   -0.1840 C   0  0  0  0  0  0  0  0  0  0  0  0
   15.2240   -4.8530   -1.3220 C   0  0  0  0  0  0  0  0  0  0  0  0
   16.6060   -5.2280   -0.8400 C   0  0  0  0  0  0  0  0  0  0  0  0
   17.6060   -5.1560   -1.9730 C   0  0  0  0  0  0  0  0  0  0  0  0
    7.6730   -0.0190    1.8620 O   0  5  0  0  0  0  0  0  0  0  0  0
   10.0550   -0.0300    1.2090 H   0  0  0  0  0  0  0  0  0  0  0  0
    9.6640   -0.2330   -0.4640 H   0  0  0  0  0  0  0  0  0  0  0  0
    9.2940   -2.8030    0.0950 H   0  0  0  0  0  0  0  0  0  0  0  0
   10.1060   -2.4110    1.5940 H   0  0  0  0  0  0  0  0  0  0  0  0
   11.9210   -1.3150    0.0210 H   0  0  0  0  0  0  0  0  0  0  0  0
   11.1700   -2.2470   -1.2400 H   0  0  0  0  0  0  0  0  0  0  0  0
   11.5970   -4.3180    0.0890 H   0  0  0  0  0  0  0  0  0  0  0  0
   12.2370   -3.3920    1.4180 H   0  0  0  0  0  0  0  0  0  0  0  0
   14.1240   -2.5630    0.1400 H   0  0  0  0  0  0  0  0  0  0  0  0
   13.4210   -3.0720   -1.3390 H   0  0  0  0  0  0  0  0  0  0  0  0
   13.5260   -5.5230   -0.2470 H   0  0  0  0  0  0  0  0  0  0  0  0
   14.7110   -4.8120    0.7820 H   0  0  0  0  0  0  0  0  0  0  0  0
   15.3010   -3.9410   -1.9060 H   0  0  0  0  0  0  0  0  0  0  0  0
   14.8670   -5.6030   -2.0230 H   0  0  0  0  0  0  0  0  0  0  0  0
   16.6130   -6.2070   -0.3610 H   0  0  0  0  0  0  0  0  0  0  0  0
   16.9150   -4.5070   -0.0900 H   0  0  0  0  0  0  0  0  0  0  0  0
   18.6160   -5.1520   -1.5660 H   0  0  0  0  0  0  0  0  0  0  0  0
   17.5550   -6.0280   -2.6140 H   0  0  0  0  0  0  0  0  0  0  0  0
   17.4980   -4.2530   -2.5750 H   0  0  0  0  0  0  0  0  0  0  0  0
  1 12  1  0  0  0  0
  2  1  2  0  0  0  0
  3  4  1  0  0  0  0
  3  1  1  0  0  0  0
  3 13  1  0  0  0  0
  4 16  1  0  0  0  0
  5 17  1  0  0  0  0
  5  6  1  0  0  0  0
  5  4  1  0  0  0  0
  6 20  1  0  0  0  0
  7  8  1  0  0  0  0
  7 21  1  0  0  0  0
  7  6  1  0  0  0  0
  8 24  1  0  0  0  0
  9 10  1  0  0  0  0
  9  8  1  0  0  0  0
 10 27  1  0  0  0  0
 10 28  1  0  0  0  0
 11 29  1  0  0  0  0
 11 10  1  0  0  0  0
 14  3  1  0  0  0  0
 15  4  1  0  0  0  0
 18  5  1  0  0  0  0
 19  6  1  0  0  0  0
 22  7  1  0  0  0  0
 23  8  1  0  0  0  0
 25  9  1  0  0  0  0
 26  9  1  0  0  0  0
 30 11  1  0  0  0  0
 31 11  1  0  0  0  0
M  CHG  1  12  -1
M  END
$$$$
