2xdl_ligand_rnum.pdb
 OpenBabel02151809393D

 33 33  0  0  0  0  0  0  0  0999 V2000
   64.9910   33.1470   27.7090 C   0  0  0  0  0  0  0  0  0  0  0  0
   66.0820   33.4500   26.8880 C   0  0  0  0  0  0  0  0  0  0  0  0
   65.8810   34.1640   25.7290 C   0  0  0  0  0  0  0  0  0  0  0  0
   64.6130   34.5720   25.3420 C   0  0  0  0  0  0  0  0  0  0  0  0
   63.5170   34.2650   26.1560 C   0  0  0  0  0  0  0  0  0  0  0  0
   63.7040   33.5570   27.3290 C   0  0  0  0  0  0  0  0  0  0  0  0
   65.1940   32.4660   28.8720 O   0  0  0  0  0  0  0  0  0  0  0  0
   65.1120   38.5490   25.2530 C   0  0  0  0  0  0  0  0  0  0  0  0
   65.7340   37.1830   25.0660 C   0  0  0  0  0  0  0  0  0  0  0  0
   65.2710   37.1500   22.6150 C   0  0  0  0  0  0  0  0  0  0  0  0
   66.7140   37.4160   22.2250 C   0  0  0  0  0  0  0  0  0  0  0  0
   64.4420   35.3230   24.0650 C   0  0  0  0  0  0  0  0  0  0  0  0
   63.7100   34.8850   23.2070 O   0  0  0  0  0  0  0  0  0  0  0  0
   67.3140   33.0280   27.3160 O   0  0  0  0  0  0  0  0  0  0  0  0
   65.1750   36.4640   23.9030 N   0  0  0  0  0  0  0  0  0  0  0  0
   68.4560   33.8620   26.9850 C   0  0  0  0  0  0  0  0  0  0  0  0
   66.7120   34.3960   25.0800 H   0  0  0  0  0  0  0  0  0  0  0  0
   62.5210   34.5750   25.8730 H   0  0  0  0  0  0  0  0  0  0  0  0
   62.8550   33.3260   27.9560 H   0  0  0  0  0  0  0  0  0  0  0  0
   66.1140   32.3290   29.0400 H   0  0  0  0  0  0  0  0  0  0  0  0
   65.4340   38.9830   26.2000 H   0  0  0  0  0  0  0  0  0  0  0  0
   65.4170   39.2430   24.4710 H   0  0  0  0  0  0  0  0  0  0  0  0
   64.0340   38.5270   25.2720 H   0  0  0  0  0  0  0  0  0  0  0  0
   65.6010   36.6900   26.0260 H   0  0  0  0  0  0  0  0  0  0  0  0
   66.8140   37.2760   24.9490 H   0  0  0  0  0  0  0  0  0  0  0  0
   64.8230   36.5570   21.8200 H   0  0  0  0  0  0  0  0  0  0  0  0
   64.6970   38.0760   22.6260 H   0  0  0  0  0  0  0  0  0  0  0  0
   66.7990   37.6300   21.1590 H   0  0  0  0  0  0  0  0  0  0  0  0
   67.1110   38.2790   22.7600 H   0  0  0  0  0  0  0  0  0  0  0  0
   67.3630   36.5740   22.4610 H   0  0  0  0  0  0  0  0  0  0  0  0
   69.3680   33.4510   27.4130 H   0  0  0  0  0  0  0  0  0  0  0  0
   68.6070   33.8890   25.9110 H   0  0  0  0  0  0  0  0  0  0  0  0
   68.3260   34.8790   27.3560 H   0  0  0  0  0  0  0  0  0  0  0  0
  1  7  1  0  0  0  0
  2 14  1  0  0  0  0
  2  1  2  0  0  0  0
  3  2  1  0  0  0  0
  4  3  2  0  0  0  0
  4  5  1  0  0  0  0
  5  6  2  0  0  0  0
  6  1  1  0  0  0  0
  6 19  1  0  0  0  0
  7 20  1  0  0  0  0
  8 23  1  0  0  0  0
  8 21  1  0  0  0  0
  9  8  1  0  0  0  0
  9 24  1  0  0  0  0
 10 27  1  0  0  0  0
 10 15  1  0  0  0  0
 11 30  1  0  0  0  0
 11 10  1  0  0  0  0
 11 29  1  0  0  0  0
 12  4  1  0  0  0  0
 13 12  2  0  0  0  0
 15 12  1  0  0  0  0
 15  9  1  0  0  0  0
 16 14  1  0  0  0  0
 16 33  1  0  0  0  0
 16 31  1  0  0  0  0
 17  3  1  0  0  0  0
 18  5  1  0  0  0  0
 22  8  1  0  0  0  0
 25  9  1  0  0  0  0
 26 10  1  0  0  0  0
 28 11  1  0  0  0  0
 32 16  1  0  0  0  0
M  END
$$$$
