3zsx_ligand_rnum.pdb
 OpenBabel02151809393D

 60 63  0  0  1  0  0  0  0  0999 V2000
   -8.6990   42.1900   -0.2160 C   0  0  0  0  0  0  0  0  0  0  0  0
  -10.5610   48.0060    5.9460 C   0  0  0  0  0  0  0  0  0  0  0  0
   -8.3660   41.6880    1.0240 C   0  0  0  0  0  0  0  0  0  0  0  0
   -8.4790   43.5210   -0.4930 C   0  0  0  0  0  0  0  0  0  0  0  0
  -11.4430   48.8430    5.3080 C   0  0  0  0  0  0  0  0  0  0  0  0
   -9.5690   47.3550    5.2370 C   0  0  0  0  0  0  0  0  0  0  0  0
   -7.8310   42.5170    1.9820 C   0  0  0  0  0  0  0  0  0  0  0  0
   -7.9500   44.3510    0.4730 C   0  0  0  0  0  0  0  0  0  0  0  0
  -11.3160   49.0260    3.9420 C   0  0  0  0  0  0  0  0  0  0  0  0
  -11.4150   45.4100   -1.4350 C   0  0  0  0  0  0  0  0  0  0  0  0
  -12.2240   44.8440   -2.4120 C   0  0  0  0  0  0  0  0  0  0  0  0
   -9.4420   47.5320    3.8700 C   0  0  0  0  0  0  0  0  0  0  0  0
  -13.2840   45.6280    0.1090 C   0  0  0  0  0  0  0  0  0  0  0  0
   -7.6250   43.8540    1.7210 C   0  0  0  0  0  0  0  0  0  0  0  0
  -10.3280   48.3820    3.2220 C   0  0  0  0  0  0  0  0  0  0  0  0
  -11.9300   45.7920   -0.1960 C   0  0  0  0  0  0  0  0  0  0  0  0
  -13.5540   44.6850   -2.0970 C   0  0  0  0  0  0  0  0  0  0  0  0
  -14.0720   45.0580   -0.8820 C   0  0  0  0  0  0  0  0  0  0  0  0
   -9.7750   49.8150   -1.5440 C   0  0  0  0  0  0  0  0  0  0  0  0
  -10.4420   48.6770   -1.3170 C   0  0  0  0  0  0  0  0  0  0  0  0
   -8.3530   46.8170    3.1400 C   0  0  0  0  0  0  0  0  0  0  0  0
  -13.8630   46.0140    1.4470 C   0  0  0  0  0  0  0  0  0  0  0  0
  -15.6780   44.2290   -2.1100 C   0  0  0  0  0  0  0  0  0  0  0  0
   -7.0610   44.7550    2.7740 C   0  0  0  0  0  0  0  0  0  0  0  0
  -10.2600   48.6390    1.7570 C   0  0  0  0  0  0  0  0  0  0  0  0
  -10.9790   46.4010    0.7950 C   0  0  0  0  0  0  0  0  0  0  0  0
  -11.5650   48.6040   -0.3400 C   0  0  0  0  0  0  0  0  0  0  0  0
   -8.1140   45.4850    3.4500 N   0  0  0  0  0  0  0  0  0  0  0  0
  -11.2360   47.8790    0.9330 N   0  3  2  0  0  0  0  0  0  0  0  0
  -14.8250   45.3120    1.8660 O   0  0  0  0  0  0  0  0  0  0  0  0
   -7.7010   47.4220    2.3030 O   0  0  0  0  0  0  0  0  0  0  0  0
  -13.3620   46.9690    2.1130 O   0  5  0  0  0  0  0  0  0  0  0  0
  -14.4970   44.1510   -2.9400 O   0  0  0  0  0  0  0  0  0  0  0  0
  -15.4420   44.8020   -0.8110 O   0  0  0  0  0  0  0  0  0  0  0  0
   -9.1190   41.5390   -0.9690 H   0  0  0  0  0  0  0  0  0  0  0  0
  -10.6450   47.8550    7.0120 H   0  0  0  0  0  0  0  0  0  0  0  0
   -8.5210   40.6410    1.2400 H   0  0  0  0  0  0  0  0  0  0  0  0
   -8.7170   43.9120   -1.4710 H   0  0  0  0  0  0  0  0  0  0  0  0
  -12.2230   49.3460    5.8610 H   0  0  0  0  0  0  0  0  0  0  0  0
   -8.8820   46.7170    5.7730 H   0  0  0  0  0  0  0  0  0  0  0  0
   -7.5700   42.1110    2.9480 H   0  0  0  0  0  0  0  0  0  0  0  0
   -7.7780   45.3930    0.2450 H   0  0  0  0  0  0  0  0  0  0  0  0
  -12.0150   49.6800    3.4410 H   0  0  0  0  0  0  0  0  0  0  0  0
  -10.3660   45.5410   -1.6520 H   0  0  0  0  0  0  0  0  0  0  0  0
  -11.8260   44.5400   -3.3670 H   0  0  0  0  0  0  0  0  0  0  0  0
   -8.9580   49.8460   -2.2490 H   0  0  0  0  0  0  0  0  0  0  0  0
  -10.0270   50.7320   -1.0320 H   0  0  0  0  0  0  0  0  0  0  0  0
  -10.1660   47.7780   -1.8430 H   0  0  0  0  0  0  0  0  0  0  0  0
  -16.0590   43.2170   -1.9690 H   0  0  0  0  0  0  0  0  0  0  0  0
  -16.4350   44.8190   -2.6270 H   0  0  0  0  0  0  0  0  0  0  0  0
   -6.2950   45.3990    2.3370 H   0  0  0  0  0  0  0  0  0  0  0  0
   -6.5420   44.1560    3.5230 H   0  0  0  0  0  0  0  0  0  0  0  0
   -9.2900   48.6340    1.2790 H   0  0  0  0  0  0  0  0  0  0  0  0
  -10.5240   49.6940    1.6670 H   0  0  0  0  0  0  0  0  0  0  0  0
   -9.9540   46.2700    0.4510 H   0  0  0  0  0  0  0  0  0  0  0  0
  -11.0370   45.8950    1.7600 H   0  0  0  0  0  0  0  0  0  0  0  0
  -12.4360   48.1780   -0.8360 H   0  0  0  0  0  0  0  0  0  0  0  0
  -11.8840   49.6160   -0.0840 H   0  0  0  0  0  0  0  0  0  0  0  0
   -8.6880   45.0080    4.1350 H   0  0  0  0  0  0  0  0  0  0  0  0
  -12.1030   47.8980    1.4630 H   0  0  0  0  0  0  0  0  0  0  0  0
  1  3  1  0  0  0  0
  2 36  1  0  0  0  0
  3 37  1  0  0  0  0
  3  7  2  0  0  0  0
  4  1  2  0  0  0  0
  4  8  1  0  0  0  0
  5 39  1  0  0  0  0
  5  2  1  0  0  0  0
  6 40  1  0  0  0  0
  6  2  2  0  0  0  0
  7 41  1  0  0  0  0
  8 14  2  0  0  0  0
  9  5  2  0  0  0  0
 10 16  2  0  0  0  0
 11 17  2  0  0  0  0
 11 10  1  0  0  0  0
 12  6  1  0  0  0  0
 13 22  1  0  0  0  0
 14  7  1  0  0  0  0
 14 24  1  0  0  0  0
 15 12  2  0  0  0  0
 15  9  1  0  0  0  0
 16 13  1  0  0  0  0
 16 26  1  0  0  0  0
 17 18  1  0  0  0  0
 18 34  1  0  0  0  0
 18 13  2  0  0  0  0
 19 20  2  0  0  0  0
 19 47  1  0  0  0  0
 20 27  1  0  0  0  0
 21 28  1  0  0  0  0
 21 12  1  0  0  0  0
 22 30  2  0  0  0  0
 22 32  1  0  0  0  0
 23 49  1  0  0  0  0
 23 34  1  0  0  0  0
 24 28  1  0  0  0  0
 24 52  1  0  0  0  0
 25 15  1  0  0  0  0
 26 29  1  0  0  0  0
 26 56  1  0  0  0  0
 27 58  1  0  0  0  0
 27 29  1  0  0  0  0
 28 59  1  0  0  0  0
 29 60  1  1  0  0  0
 29 25  1  0  0  0  0
 31 21  2  0  0  0  0
 33 23  1  0  0  0  0
 33 17  1  0  0  0  0
 35  1  1  0  0  0  0
 38  4  1  0  0  0  0
 42  8  1  0  0  0  0
 43  9  1  0  0  0  0
 44 10  1  0  0  0  0
 45 11  1  0  0  0  0
 46 19  1  0  0  0  0
 48 20  1  0  0  0  0
 50 23  1  0  0  0  0
 51 24  1  0  0  0  0
 53 25  1  0  0  0  0
 54 25  1  0  0  0  0
 55 26  1  0  0  0  0
 57 27  1  0  0  0  0
M  CHG  2  29   1  32  -1
M  END
$$$$
