1lol_ligand_rnum.pdb
 OpenBabel02151809393D

 34 36  0  0  1  0  0  0  0  0999 V2000
    3.2930   36.9480   44.6050 P   0  0  0  0  0  0  0  0  0  0  0  0
    4.1210   37.4900   43.5250 O   0  0  0  0  0  0  0  0  0  0  0  0
    2.0860   36.2280   44.0640 O   0  5  0  0  0  0  0  0  0  0  0  0
    2.7110   38.1380   45.5130 O   0  0  0  0  0  0  0  0  0  0  0  0
    4.1100   36.0550   45.5710 O   0  5  0  0  0  0  0  0  0  0  0  0
    2.5800   38.0430   46.9350 C   0  0  0  0  0  0  0  0  0  0  0  0
    1.9750   39.3120   47.4770 C   0  0  1  0  0  0  0  0  0  0  0  0
    2.9650   40.3480   47.1690 O   0  0  0  0  0  0  0  0  0  0  0  0
    2.2830   41.5810   46.8760 C   0  0  1  0  0  0  0  0  0  0  0  0
    2.8090   42.0620   45.5770 N   0  0  0  0  0  0  0  0  0  0  0  0
    3.5310   43.2280   45.4310 C   0  0  0  0  0  0  0  0  0  0  0  0
    3.8770   44.1200   46.4320 N   0  5  0  0  0  0  0  0  0  0  0  0
    4.9450   45.3310   44.6040 N   0  0  0  0  0  0  0  0  0  0  0  0
    4.5980   45.1710   45.9500 C   0  0  0  0  0  0  0  0  0  0  0  0
    5.0020   46.0670   46.6860 O   0  0  0  0  0  0  0  0  0  0  0  0
    4.5800   44.4020   43.5770 C   0  0  0  0  0  0  0  0  0  0  0  0
    4.9120   44.5960   42.4140 O   0  0  0  0  0  0  0  0  0  0  0  0
    3.8290   43.3050   44.0860 C   0  0  0  0  0  0  0  0  0  0  0  0
    3.3010   42.1990   43.3690 N   0  0  0  0  0  0  0  0  0  0  0  0
    2.7160   41.5120   44.3180 C   0  0  0  0  0  0  0  0  0  0  0  0
    0.7860   41.3190   46.9670 C   0  0  2  0  0  0  0  0  0  0  0  0
    0.2410   41.7550   48.2190 O   0  0  0  0  0  0  0  0  0  0  0  0
    0.6950   39.8280   46.8260 C   0  0  2  0  0  0  0  0  0  0  0  0
   -0.4780   39.3340   47.4510 O   0  0  0  0  0  0  0  0  0  0  0  0
    3.5530   37.8620   47.3930 H   0  0  0  0  0  0  0  0  0  0  0  0
    1.9460   37.1910   47.1720 H   0  0  0  0  0  0  0  0  0  0  0  0
    1.8620   39.2650   48.5610 H   0  0  0  0  0  0  0  0  0  0  0  0
    2.5970   42.3200   47.6110 H   0  0  0  0  0  0  0  0  0  0  0  0
    5.4970   46.1350   44.3450 H   0  0  0  0  0  0  0  0  0  0  0  0
    2.2040   40.5800   44.1270 H   0  0  0  0  0  0  0  0  0  0  0  0
    0.2610   41.8390   46.1640 H   0  0  0  0  0  0  0  0  0  0  0  0
    0.3950   42.6840   48.3000 H   0  0  0  0  0  0  0  0  0  0  0  0
    0.6730   39.5700   45.7670 H   0  0  0  0  0  0  0  0  0  0  0  0
   -0.9270   38.7610   46.8340 H   0  0  0  0  0  0  0  0  0  0  0  0
  1  4  1  0  0  0  0
  1  5  1  0  0  0  0
  2  1  2  0  0  0  0
  3  1  1  0  0  0  0
  4  6  1  0  0  0  0
  6 26  1  0  0  0  0
  6 25  1  0  0  0  0
  6  7  1  0  0  0  0
  7 23  1  6  0  0  0
  7 27  1  0  0  0  0
  8  7  1  0  0  0  0
  9 21  1  6  0  0  0
  9  8  1  0  0  0  0
  9 28  1  0  0  0  0
 10  9  1  0  0  0  0
 11 10  1  0  0  0  0
 11 12  1  0  0  0  0
 13 14  1  0  0  0  0
 14 12  1  0  0  0  0
 14 15  2  0  0  0  0
 16 18  1  0  0  0  0
 16 13  1  0  0  0  0
 17 16  2  0  0  0  0
 18 11  2  0  0  0  0
 19 18  1  0  0  0  0
 19 20  2  0  0  0  0
 20 10  1  0  0  0  0
 21 23  1  6  0  0  0
 21 22  1  0  0  0  0
 22 32  1  0  0  0  0
 23 33  1  6  0  0  0
 23 24  1  0  0  0  0
 29 13  1  0  0  0  0
 30 20  1  0  0  0  0
 31 21  1  0  0  0  0
 34 24  1  0  0  0  0
M  CHG  3   3  -1   5  -1  12  -1
M  END
$$$$
