3bfu_ligand_rnum.pdb
 OpenBabel02151809393D

 19 19  0  0  1  0  0  0  0  0999 V2000
  -32.2300   -6.5760   43.1720 N   0  0  0  0  0  0  0  0  0  0  0  0
  -31.3080   -4.1160   44.7160 N   0  3  0  0  0  0  0  0  0  0  0  0
  -31.2140   -3.8620   43.2200 C   0  0  1  0  0  0  0  0  0  0  0  0
  -30.4950   -2.5070   43.0600 C   0  0  0  0  0  0  0  0  0  0  0  0
  -29.6810   -7.3880   40.8470 O   0  0  0  0  0  0  0  0  0  0  0  0
  -30.7230   -7.4440   41.6710 C   0  0  0  0  0  0  0  0  0  0  0  0
  -31.4560   -8.5460   41.8970 N   0  0  0  0  0  0  0  0  0  0  0  0
  -32.6500   -8.2060   42.9730 S   0  0  0  0  0  0  0  0  0  0  0  0
  -31.1780   -6.2870   42.4170 C   0  0  0  0  0  0  0  0  0  0  0  0
  -30.4930   -4.9290   42.3070 C   0  0  0  0  0  0  0  0  0  0  0  0
  -30.4640   -1.7640   44.1630 O   0  0  0  0  0  0  0  0  0  0  0  0
  -30.0500   -2.2230   41.9600 O   0  5  0  0  0  0  0  0  0  0  0  0
  -31.7000   -5.0330   44.8830 H   0  0  0  0  0  0  0  0  0  0  0  0
  -30.3830   -4.0760   45.1240 H   0  0  0  0  0  0  0  0  0  0  0  0
  -31.8910   -3.4120   45.1480 H   0  0  0  0  0  0  0  0  0  0  0  0
  -32.2310   -3.7520   42.8690 H   0  0  0  0  0  0  0  0  0  0  0  0
  -31.3420   -9.4470   41.4560 H   0  0  0  0  0  0  0  0  0  0  0  0
  -29.4540   -5.0630   42.5920 H   0  0  0  0  0  0  0  0  0  0  0  0
  -30.5090   -4.6360   41.2560 H   0  0  0  0  0  0  0  0  0  0  0  0
  2 13  1  0  0  0  0
  2 14  1  0  0  0  0
  2 15  1  0  0  0  0
  3 16  1  6  0  0  0
  3  2  1  0  0  0  0
  4  3  1  0  0  0  0
  4 11  1  0  0  0  0
  5  6  2  0  0  0  0
  6  7  1  0  0  0  0
  6  9  1  0  0  0  0
  7  8  1  0  0  0  0
  8  1  1  0  0  0  0
  9  1  2  0  0  0  0
 10  9  1  0  0  0  0
 10 18  1  0  0  0  0
 10  3  1  0  0  0  0
 12  4  2  0  0  0  0
 17  7  1  0  0  0  0
 19 10  1  0  0  0  0
M  CHG  2   2   1  12  -1
M  END
$$$$
