3ivg_ligand_rnum.pdb
 OpenBabel02151809393D

 46 49  0  0  0  0  0  0  0  0999 V2000
    2.1690  -13.2940   38.7590 C   0  0  0  0  0  0  0  0  0  0  0  0
    1.0270  -10.9390   38.7200 N   0  0  0  0  0  0  0  0  0  0  0  0
    3.2920  -13.8500   38.9340 O   0  0  0  0  0  0  0  0  0  0  0  0
    2.0520  -11.8850   39.3060 C   0  0  0  0  0  0  0  0  0  0  0  0
   -2.9080   -6.8670   40.9480 C   0  0  0  0  0  0  0  0  0  0  0  0
   -0.9840  -10.2620   33.7540 O   0  0  0  0  0  0  0  0  0  0  0  0
    0.2400  -12.4860   33.7990 O   0  0  0  0  0  0  0  0  0  0  0  0
    2.3080  -10.0390   27.9140 C   0  0  0  0  0  0  0  0  0  0  0  0
    3.4440   -9.5110   28.5220 C   0  0  0  0  0  0  0  0  0  0  0  0
   -0.6190   -9.5480   41.6640 C   0  0  0  0  0  0  0  0  0  0  0  0
    1.3050  -10.5040   28.7450 C   0  0  0  0  0  0  0  0  0  0  0  0
    3.5490   -9.4570   29.9090 C   0  0  0  0  0  0  0  0  0  0  0  0
    0.2420  -10.3270   40.9140 C   0  0  0  0  0  0  0  0  0  0  0  0
   -1.4020   -8.6720   39.5410 C   0  0  0  0  0  0  0  0  0  0  0  0
   -0.2960   -9.6160   37.5530 C   0  0  0  0  0  0  0  0  0  0  0  0
    0.6370  -10.8250   31.0380 C   0  0  0  0  0  0  0  0  0  0  0  0
    1.3880  -11.1080   36.2430 C   0  0  0  0  0  0  0  0  0  0  0  0
    1.3760  -10.2290   35.0640 N   0  0  0  0  0  0  0  0  0  0  0  0
   -2.3030   -7.9420   41.6670 O   0  0  0  0  0  0  0  0  0  0  0  0
    2.3800  -10.0170   32.0480 O   0  0  0  0  0  0  0  0  0  0  0  0
   -1.4540   -8.7030   40.9490 C   0  0  0  0  0  0  0  0  0  0  0  0
    0.6860  -10.5270   37.4960 C   0  0  0  0  0  0  0  0  0  0  0  0
    1.1860  -10.5710   32.2120 C   0  0  0  0  0  0  0  0  0  0  0  0
    1.4560  -10.4350   30.0710 C   0  0  0  0  0  0  0  0  0  0  0  0
   -0.5460   -9.4560   38.8590 C   0  0  0  0  0  0  0  0  0  0  0  0
    2.5520   -9.9290   30.6510 C   0  0  0  0  0  0  0  0  0  0  0  0
    0.2700  -10.2680   39.5690 C   0  0  0  0  0  0  0  0  0  0  0  0
    0.3880  -10.9540   33.7370 S   0  0  0  0  0  0  0  0  0  0  0  0
    1.1570  -13.8020   38.2310 O   0  5  0  0  0  0  0  0  0  0  0  0
    3.0250  -11.4600   39.0600 H   0  0  0  0  0  0  0  0  0  0  0  0
    1.9900  -12.0590   40.3700 H   0  0  0  0  0  0  0  0  0  0  0  0
   -3.4590   -6.2130   41.6180 H   0  0  0  0  0  0  0  0  0  0  0  0
   -2.1400   -6.2290   40.5070 H   0  0  0  0  0  0  0  0  0  0  0  0
   -3.5900   -7.1460   40.1630 H   0  0  0  0  0  0  0  0  0  0  0  0
    2.2140  -10.0870   26.8390 H   0  0  0  0  0  0  0  0  0  0  0  0
    4.2530   -9.1410   27.9110 H   0  0  0  0  0  0  0  0  0  0  0  0
   -0.6280   -9.5850   42.7440 H   0  0  0  0  0  0  0  0  0  0  0  0
    0.4050  -10.9250   28.3200 H   0  0  0  0  0  0  0  0  0  0  0  0
    4.4290   -9.0460   30.3820 H   0  0  0  0  0  0  0  0  0  0  0  0
    0.9220  -10.9010   41.4930 H   0  0  0  0  0  0  0  0  0  0  0  0
   -2.0440   -8.0390   38.9490 H   0  0  0  0  0  0  0  0  0  0  0  0
   -0.7770   -9.1120   36.7290 H   0  0  0  0  0  0  0  0  0  0  0  0
   -0.2550  -11.1160   30.7580 H   0  0  0  0  0  0  0  0  0  0  0  0
    2.4330  -11.3030   36.4820 H   0  0  0  0  0  0  0  0  0  0  0  0
    0.9610  -12.0850   36.0290 H   0  0  0  0  0  0  0  0  0  0  0  0
    2.3400  -10.0860   34.7590 H   0  0  0  0  0  0  0  0  0  0  0  0
  1  3  1  0  0  0  0
  1  4  1  0  0  0  0
  2  4  1  0  0  0  0
  2 27  1  0  0  0  0
  4 31  1  0  0  0  0
  5 32  1  0  0  0  0
  5 19  1  0  0  0  0
  8  9  2  0  0  0  0
  8 11  1  0  0  0  0
  9 12  1  0  0  0  0
 10 37  1  0  0  0  0
 11 24  2  0  0  0  0
 12 39  1  0  0  0  0
 12 26  2  0  0  0  0
 13 40  1  0  0  0  0
 13 10  1  0  0  0  0
 14 21  1  0  0  0  0
 15 25  1  0  0  0  0
 16 23  2  0  0  0  0
 17 44  1  0  0  0  0
 17 22  1  0  0  0  0
 18 17  1  0  0  0  0
 20 23  1  0  0  0  0
 21 10  2  0  0  0  0
 21 19  1  0  0  0  0
 22 15  2  0  0  0  0
 22  2  1  0  0  0  0
 23 28  1  0  0  0  0
 24 26  1  0  0  0  0
 24 16  1  0  0  0  0
 25 14  2  0  0  0  0
 25 27  1  0  0  0  0
 26 20  1  0  0  0  0
 27 13  2  0  0  0  0
 28  6  2  0  0  0  0
 28  7  2  0  0  0  0
 28 18  1  0  0  0  0
 29  1  2  0  0  0  0
 30  4  1  0  0  0  0
 33  5  1  0  0  0  0
 34  5  1  0  0  0  0
 35  8  1  0  0  0  0
 36  9  1  0  0  0  0
 38 11  1  0  0  0  0
 41 14  1  0  0  0  0
 42 15  1  0  0  0  0
 43 16  1  0  0  0  0
 45 17  1  0  0  0  0
 46 18  1  0  0  0  0
M  CHG  1  29  -1
M  END
$$$$
