2xys_ligand_rnum.pdb
 OpenBabel02151809393D

 50 56  0  0  1  0  0  0  0  0999 V2000
  -42.9440    7.4570  -16.9290 C   0  0  1  0  0  0  0  0  0  0  0  0
  -41.9900    7.1990  -18.1010 C   0  0  0  0  0  0  0  0  0  0  0  0
  -40.7140    6.5440  -17.5940 C   0  0  2  0  0  0  0  0  0  0  0  0
  -41.0620    5.1650  -17.0300 C   0  0  2  0  0  0  0  0  0  0  0  0
  -42.0570    5.2400  -15.8770 C   0  0  2  0  0  0  0  0  0  0  0  0
  -42.7000    3.9170  -15.8410 N   0  0  0  0  0  0  0  0  0  0  0  0
  -44.0650    3.9930  -16.1040 C   0  0  0  0  0  0  0  0  0  0  0  0
  -44.9770    2.9560  -16.3080 C   0  0  0  0  0  0  0  0  0  0  0  0
  -46.2920    3.2310  -16.6460 C   0  0  0  0  0  0  0  0  0  0  0  0
  -46.6780    4.5540  -16.8200 C   0  0  0  0  0  0  0  0  0  0  0  0
  -45.7620    5.5900  -16.6500 C   0  0  0  0  0  0  0  0  0  0  0  0
  -44.4390    5.3160  -16.3360 C   0  0  0  0  0  0  0  0  0  0  0  0
  -43.2320    6.2250  -16.0280 C   0  0  2  0  0  0  0  0  0  0  0  0
  -43.5470    6.8790  -14.6840 C   0  0  0  0  0  0  0  0  0  0  0  0
  -42.4180    7.8980  -14.6160 C   0  0  0  0  0  0  0  0  0  0  0  0
  -42.3470    8.4640  -15.9910 N   0  3  1  0  0  0  0  0  0  0  0  0
  -40.9240    8.7590  -16.2420 C   0  0  0  0  0  0  0  0  0  0  0  0
  -40.1910    7.4520  -16.5210 C   0  0  0  0  0  0  0  0  0  0  0  0
  -39.0950    7.2170  -15.7090 C   0  0  0  0  0  0  0  0  0  0  0  0
  -38.3450    6.0510  -15.8310 C   0  0  0  0  0  0  0  0  0  0  0  0
  -38.9960    4.7820  -15.5800 O   0  0  0  0  0  0  0  0  0  0  0  0
  -39.8690    4.2820  -16.5900 C   0  0  1  0  0  0  0  0  0  0  0  0
  -40.3490    2.9870  -15.8440 C   0  0  0  0  0  0  0  0  0  0  0  0
  -41.8680    2.8070  -15.9080 C   0  0  1  0  0  0  0  0  0  0  0  0
  -42.4320    1.5680  -15.9210 O   0  0  0  0  0  0  0  0  0  0  0  0
  -43.8810    7.8800  -17.2920 H   0  0  0  0  0  0  0  0  0  0  0  0
  -41.7490    8.1240  -18.5940 H   0  0  0  0  0  0  0  0  0  0  0  0
  -42.4730    6.5690  -18.8500 H   0  0  0  0  0  0  0  0  0  0  0  0
  -39.9860    6.4650  -18.4000 H   0  0  0  0  0  0  0  0  0  0  0  0
  -41.5290    4.6610  -17.8780 H   0  0  0  0  0  0  0  0  0  0  0  0
  -41.5240    5.3940  -14.9390 H   0  0  0  0  0  0  0  0  0  0  0  0
  -44.7330    1.9160  -16.1870 H   0  0  0  0  0  0  0  0  0  0  0  0
  -47.0030    2.4290  -16.7820 H   0  0  0  0  0  0  0  0  0  0  0  0
  -47.6960    4.7860  -17.0890 H   0  0  0  0  0  0  0  0  0  0  0  0
  -46.0830    6.6130  -16.7790 H   0  0  0  0  0  0  0  0  0  0  0  0
  -43.5420    6.1900  -13.8380 H   0  0  0  0  0  0  0  0  0  0  0  0
  -44.5060    7.3960  -14.7110 H   0  0  0  0  0  0  0  0  0  0  0  0
  -41.4980    7.4350  -14.2590 H   0  0  0  0  0  0  0  0  0  0  0  0
  -42.6610    8.6850  -13.9080 H   0  0  0  0  0  0  0  0  0  0  0  0
  -42.8840    9.3230  -16.0150 H   0  0  0  0  0  0  0  0  0  0  0  0
  -40.4950    9.3100  -15.4020 H   0  0  0  0  0  0  0  0  0  0  0  0
  -40.8250    9.4280  -17.0970 H   0  0  0  0  0  0  0  0  0  0  0  0
  -38.8050    7.9130  -14.9380 H   0  0  0  0  0  0  0  0  0  0  0  0
  -37.5450    6.1030  -15.0960 H   0  0  0  0  0  0  0  0  0  0  0  0
  -37.8560    6.0310  -16.8050 H   0  0  0  0  0  0  0  0  0  0  0  0
  -39.2660    4.0250  -17.4600 H   0  0  0  0  0  0  0  0  0  0  0  0
  -39.8450    2.6800  -14.9400 H   0  0  0  0  0  0  0  0  0  0  0  0
  -39.9700    2.1870  -16.4820 H   0  0  0  0  0  0  0  0  0  0  0  0
  -41.9140    2.7750  -16.9960 H   0  0  0  0  0  0  0  0  0  0  0  0
  -43.3650    1.6630  -15.8170 H   0  0  0  0  0  0  0  0  0  0  0  0
  1 13  1  1  0  0  0
  2  3  1  0  0  0  0
  2  1  1  0  0  0  0
  3  4  1  1  0  0  0
  3 18  1  0  0  0  0
  4 22  1  1  0  0  0
  5  4  1  6  0  0  0
  5  6  1  0  0  0  0
  5 31  1  0  0  0  0
  7  6  1  0  0  0  0
  8 32  1  0  0  0  0
  8  7  1  0  0  0  0
  9  8  2  0  0  0  0
 10 11  2  0  0  0  0
 10  9  1  0  0  0  0
 11 12  1  0  0  0  0
 12  7  2  0  0  0  0
 12 13  1  0  0  0  0
 13  5  1  1  0  0  0
 13 14  1  0  0  0  0
 14 15  1  0  0  0  0
 14 36  1  0  0  0  0
 15 38  1  0  0  0  0
 15 39  1  0  0  0  0
 16  1  1  6  0  0  0
 16 15  1  0  0  0  0
 17 16  1  0  0  0  0
 17 41  1  0  0  0  0
 18 17  1  0  0  0  0
 18 19  2  0  0  0  0
 19 43  1  0  0  0  0
 20 19  1  0  0  0  0
 20 21  1  0  0  0  0
 20 44  1  0  0  0  0
 22 46  1  6  0  0  0
 22 23  1  0  0  0  0
 22 21  1  0  0  0  0
 23 47  1  0  0  0  0
 24 49  1  6  0  0  0
 24 23  1  0  0  0  0
 24  6  1  0  0  0  0
 25 24  1  0  0  0  0
 25 50  1  0  0  0  0
 26  1  1  0  0  0  0
 27  2  1  0  0  0  0
 28  2  1  0  0  0  0
 29  3  1  0  0  0  0
 30  4  1  0  0  0  0
 33  9  1  0  0  0  0
 34 10  1  0  0  0  0
 35 11  1  0  0  0  0
 37 14  1  0  0  0  0
 40 16  1  0  0  0  0
 42 17  1  0  0  0  0
 45 20  1  0  0  0  0
 48 23  1  0  0  0  0
M  CHG  1  16   1
M  END
$$$$
