2cet_ligand_rnum.pdb
 OpenBabel02151809393D

 42 44  0  0  1  0  0  0  0  0999 V2000
   -2.7750    8.0450    8.4800 O   0  0  0  0  0  0  0  0  0  0  0  0
   -3.2670    9.3630    8.2000 C   0  0  0  0  0  0  0  0  0  0  0  0
   -2.3130   10.4730    8.6290 C   0  0  2  0  0  0  0  0  0  0  0  0
   -1.1030   10.6420    7.6940 C   0  0  1  0  0  0  0  0  0  0  0  0
   -1.5160   10.8410    6.3370 O   0  0  0  0  0  0  0  0  0  0  0  0
   -0.2660   11.8380    8.1920 C   0  0  2  0  0  0  0  0  0  0  0  0
    0.8140   12.2110    7.3370 O   0  0  0  0  0  0  0  0  0  0  0  0
    0.3640   11.5580    9.5490 C   0  0  1  0  0  0  0  0  0  0  0  0
    0.7430   12.7850   10.1550 O   0  0  0  0  0  0  0  0  0  0  0  0
   -1.7290   10.2150    9.9710 N   0  0  0  0  0  0  0  0  0  0  0  0
   -2.2130    9.4230   10.9420 C   0  0  0  0  0  0  0  0  0  0  0  0
   -1.2870    9.4600   11.9730 C   0  0  0  0  0  0  0  0  0  0  0  0
   -0.2800   10.2540   11.5880 N   0  0  0  0  0  0  0  0  0  0  0  0
   -0.5520   10.7170   10.3680 C   0  0  0  0  0  0  0  0  0  0  0  0
   -1.3760    8.7660   13.3130 C   0  0  0  0  0  0  0  0  0  0  0  0
   -0.0900    7.9790   13.5770 C   0  0  0  0  0  0  0  0  0  0  0  0
    0.2210    6.8550   12.5880 C   0  0  0  0  0  0  0  0  0  0  0  0
    1.1890    7.0310   11.5850 C   0  0  0  0  0  0  0  0  0  0  0  0
    1.5000    6.0000   10.6790 C   0  0  0  0  0  0  0  0  0  0  0  0
   -0.4210    5.6130   12.6800 C   0  0  0  0  0  0  0  0  0  0  0  0
   -0.1050    4.5860   11.7730 C   0  0  0  0  0  0  0  0  0  0  0  0
    0.8590    4.7600   10.7710 C   0  0  0  0  0  0  0  0  0  0  0  0
   -2.2550    7.7540    7.7350 H   0  0  0  0  0  0  0  0  0  0  0  0
   -4.1900    9.4750    8.7690 H   0  0  0  0  0  0  0  0  0  0  0  0
   -3.5650    9.4530    7.1580 H   0  0  0  0  0  0  0  0  0  0  0  0
   -2.8670   11.4110    8.6700 H   0  0  0  0  0  0  0  0  0  0  0  0
   -0.4920    9.7370    7.6980 H   0  0  0  0  0  0  0  0  0  0  0  0
   -1.8820   10.0270    5.9950 H   0  0  0  0  0  0  0  0  0  0  0  0
   -0.9280   12.7020    8.2720 H   0  0  0  0  0  0  0  0  0  0  0  0
    0.4620   12.5410    6.5190 H   0  0  0  0  0  0  0  0  0  0  0  0
    1.2680   10.9710    9.4080 H   0  0  0  0  0  0  0  0  0  0  0  0
   -0.0350   13.3170   10.2840 H   0  0  0  0  0  0  0  0  0  0  0  0
   -3.1590    8.9070   10.8730 H   0  0  0  0  0  0  0  0  0  0  0  0
   -2.2370    8.0970   13.3410 H   0  0  0  0  0  0  0  0  0  0  0  0
   -1.5270    9.5010   14.1040 H   0  0  0  0  0  0  0  0  0  0  0  0
   -0.1620    7.5270   14.5660 H   0  0  0  0  0  0  0  0  0  0  0  0
    0.7640    8.6470   13.6410 H   0  0  0  0  0  0  0  0  0  0  0  0
    1.6980    7.9780   11.4990 H   0  0  0  0  0  0  0  0  0  0  0  0
    2.2410    6.1690    9.9130 H   0  0  0  0  0  0  0  0  0  0  0  0
   -1.1660    5.4430   13.4440 H   0  0  0  0  0  0  0  0  0  0  0  0
   -0.6140    3.6370   11.8550 H   0  0  0  0  0  0  0  0  0  0  0  0
    1.0940    3.9630   10.0820 H   0  0  0  0  0  0  0  0  0  0  0  0
  2  1  1  0  0  0  0
  2  3  1  0  0  0  0
  2 24  1  0  0  0  0
  3  4  1  6  0  0  0
  3 26  1  0  0  0  0
  3 10  1  0  0  0  0
  4 27  1  0  0  0  0
  4  6  1  1  0  0  0
  5  4  1  0  0  0  0
  6 29  1  0  0  0  0
  6  8  1  1  0  0  0
  7  6  1  0  0  0  0
  8 31  1  6  0  0  0
  8  9  1  0  0  0  0
  8 14  1  0  0  0  0
  9 32  1  0  0  0  0
 10 14  1  0  0  0  0
 10 11  1  0  0  0  0
 11 12  2  0  0  0  0
 12 15  1  0  0  0  0
 13 12  1  0  0  0  0
 14 13  2  0  0  0  0
 15 34  1  0  0  0  0
 15 16  1  0  0  0  0
 15 35  1  0  0  0  0
 16 37  1  0  0  0  0
 16 36  1  0  0  0  0
 17 20  1  0  0  0  0
 17 16  1  0  0  0  0
 18 17  2  0  0  0  0
 19 22  2  0  0  0  0
 19 18  1  0  0  0  0
 20 40  1  0  0  0  0
 21 41  1  0  0  0  0
 21 20  2  0  0  0  0
 22 21  1  0  0  0  0
 23  1  1  0  0  0  0
 25  2  1  0  0  0  0
 28  5  1  0  0  0  0
 30  7  1  0  0  0  0
 33 11  1  0  0  0  0
 38 18  1  0  0  0  0
 39 19  1  0  0  0  0
 42 22  1  0  0  0  0
M  END
$$$$
