3f3e_ligand_rnum.pdb
 OpenBabel02151809393D

 22 21  0  0  1  0  0  0  0  0999 V2000
   25.0760   32.3490   18.9300 N   0  3  0  0  0  0  0  0  0  0  0  0
   26.3920   31.6910   18.8700 C   0  0  2  0  0  0  0  0  0  0  0  0
   26.3170   30.3870   18.1090 C   0  0  0  0  0  0  0  0  0  0  0  0
   27.3170   29.6230   17.9980 O   0  0  0  0  0  0  0  0  0  0  0  0
   26.8930   31.3560   20.2840 C   0  0  0  0  0  0  0  0  0  0  0  0
   26.9710   32.5090   21.2790 C   0  0  0  0  0  0  0  0  0  0  0  0
   27.4190   31.9970   22.6990 C   0  0  0  0  0  0  0  0  0  0  0  0
   27.8850   33.6130   20.7820 C   0  0  0  0  0  0  0  0  0  0  0  0
   25.2300   30.0260   17.6370 O   0  5  0  0  0  0  0  0  0  0  0  0
   25.1560   33.2570   19.3700 H   0  0  0  0  0  0  0  0  0  0  0  0
   24.7300   32.4570   17.9860 H   0  0  0  0  0  0  0  0  0  0  0  0
   24.4350   31.7670   19.4540 H   0  0  0  0  0  0  0  0  0  0  0  0
   27.0840   32.3450   18.3460 H   0  0  0  0  0  0  0  0  0  0  0  0
   27.8870   30.9130   20.2240 H   0  0  0  0  0  0  0  0  0  0  0  0
   26.2500   30.5890   20.7180 H   0  0  0  0  0  0  0  0  0  0  0  0
   25.9720   32.9280   21.3970 H   0  0  0  0  0  0  0  0  0  0  0  0
   27.4120   32.8070   23.4280 H   0  0  0  0  0  0  0  0  0  0  0  0
   26.7520   31.2130   23.0560 H   0  0  0  0  0  0  0  0  0  0  0  0
   28.4250   31.5790   22.6680 H   0  0  0  0  0  0  0  0  0  0  0  0
   27.8200   34.4770   21.4410 H   0  0  0  0  0  0  0  0  0  0  0  0
   28.9260   33.2900   20.7660 H   0  0  0  0  0  0  0  0  0  0  0  0
   27.6210   33.9680   19.7890 H   0  0  0  0  0  0  0  0  0  0  0  0
  1 10  1  0  0  0  0
  1 12  1  0  0  0  0
  2 13  1  6  0  0  0
  2  1  1  0  0  0  0
  2  5  1  0  0  0  0
  3  2  1  0  0  0  0
  4  3  1  0  0  0  0
  5 15  1  0  0  0  0
  5  6  1  0  0  0  0
  6 16  1  0  0  0  0
  6  7  1  0  0  0  0
  7 18  1  0  0  0  0
  7 17  1  0  0  0  0
  8  6  1  0  0  0  0
  8 20  1  0  0  0  0
  9  3  2  0  0  0  0
 11  1  1  0  0  0  0
 14  5  1  0  0  0  0
 19  7  1  0  0  0  0
 21  8  1  0  0  0  0
 22  8  1  0  0  0  0
M  CHG  2   1   1   9  -1
M  END
$$$$
