3uri_ligand_rnum.pdb
 OpenBabel02151809393D

132135  0  0  1  0  0  0  0  0999 V2000
    4.6000   23.5900   25.1560 N   0  3  0  0  0  0  0  0  0  0  0  0
    5.0070   24.7110   24.3170 C   0  0  2  0  0  0  0  0  0  0  0  0
    4.2320   24.5620   22.9990 C   0  0  0  0  0  0  0  0  0  0  0  0
    3.6250   23.4900   22.8210 O   0  0  0  0  0  0  0  0  0  0  0  0
    6.5190   24.5850   24.1720 C   0  0  0  0  0  0  0  0  0  0  0  0
    6.9040   24.1160   25.5720 C   0  0  0  0  0  0  0  0  0  0  0  0
    5.7800   23.1220   25.8820 C   0  0  0  0  0  0  0  0  0  0  0  0
    4.2440   25.5670   22.0930 N   0  0  0  0  0  0  0  0  0  0  0  0
    3.4890   25.6070   20.8310 C   0  0  2  0  0  0  0  0  0  0  0  0
    3.7540   26.9680   20.2140 C   0  0  0  0  0  0  0  0  0  0  0  0
    3.3380   27.9450   20.8450 O   0  0  0  0  0  0  0  0  0  0  0  0
    1.9880   25.5330   21.0610 C   0  0  0  0  0  0  0  0  0  0  0  0
    1.3470   24.4050   20.3040 C   0  0  0  0  0  0  0  0  0  0  0  0
    0.0440   24.2350   20.1440 N   0  0  0  0  0  0  0  0  0  0  0  0
    2.0270   23.3630   19.7140 C   0  0  0  0  0  0  0  0  0  0  0  0
   -0.0860   23.1180   19.4890 C   0  0  0  0  0  0  0  0  0  0  0  0
    1.0960   22.5980   19.2290 N   0  3  0  0  0  0  0  0  0  0  0  0
    4.4170   27.1320   19.0720 N   0  0  0  0  0  0  0  0  0  0  0  0
    4.7390   28.4750   18.6130 C   0  0  2  0  0  0  0  0  0  0  0  0
    3.9360   28.8690   17.3710 C   0  0  0  0  0  0  0  0  0  0  0  0
    3.5880   28.0270   16.5270 O   0  0  0  0  0  0  0  0  0  0  0  0
    6.2920   28.4740   18.4560 C   0  0  0  0  0  0  0  0  0  0  0  0
    7.1560   28.3810   19.7840 C   0  0  0  0  0  0  0  0  0  0  0  0
    7.2650   26.9500   20.3030 C   0  0  0  0  0  0  0  0  0  0  0  0
    8.6130   28.7280   19.5230 C   0  0  0  0  0  0  0  0  0  0  0  0
    3.4900   30.1280   17.2890 N   0  0  0  0  0  0  0  0  0  0  0  0
    2.6860   30.6630   16.1780 C   0  0  2  0  0  0  0  0  0  0  0  0
    3.2370   32.0260   15.7230 C   0  0  0  0  0  0  0  0  0  0  0  0
    2.6240   33.1010   15.8950 O   0  0  0  0  0  0  0  0  0  0  0  0
    1.1910   30.8400   16.5950 C   0  0  0  0  0  0  0  0  0  0  0  0
    0.4690   29.6420   16.9030 O   0  0  0  0  0  0  0  0  0  0  0  0
    4.4190   31.9970   15.1000 N   0  0  0  0  0  0  0  0  0  0  0  0
    5.1170   33.2140   14.7050 C   0  0  1  0  0  0  0  0  0  0  0  0
    6.5850   33.1010   15.0450 C   0  0  0  0  0  0  0  0  0  0  0  0
    6.9690   32.8220   16.4960 C   0  0  0  0  0  0  0  0  0  0  0  0
    8.1500   32.1090   16.7330 C   0  0  0  0  0  0  0  0  0  0  0  0
    6.1970   33.2610   17.5800 C   0  0  0  0  0  0  0  0  0  0  0  0
    8.5530   31.8480   18.0410 C   0  0  0  0  0  0  0  0  0  0  0  0
    6.6060   32.9870   18.8810 C   0  0  0  0  0  0  0  0  0  0  0  0
    7.7840   32.2870   19.1170 C   0  0  0  0  0  0  0  0  0  0  0  0
    5.0070   33.5240   13.2130 C   0  0  0  0  0  0  0  0  0  0  0  0
    3.6550   33.8100   12.8030 N   0  3  0  0  0  0  0  0  0  0  0  0
    3.4950   34.9540   11.8970 C   0  0  1  0  0  0  0  0  0  0  0  0
    2.3060   34.6750   10.9490 C   0  0  0  0  0  0  0  0  0  0  0  0
    1.0020   34.1150   11.5390 C   0  0  0  0  0  0  0  0  0  0  0  0
   -0.3160   35.3250   11.7930 S   0  0  0  0  0  0  0  0  0  0  0  0
   -1.1630   34.5320   13.1220 C   0  0  0  0  0  0  0  0  0  0  0  0
    3.2800   36.3020   12.6440 C   0  0  0  0  0  0  0  0  0  0  0  0
    2.9280   36.2930   13.8350 O   0  0  0  0  0  0  0  0  0  0  0  0
    3.5690   37.4540   12.0400 N   0  0  0  0  0  0  0  0  0  0  0  0
    3.2290   38.7160   12.6820 C   0  0  2  0  0  0  0  0  0  0  0  0
    1.8910   38.9140   11.9720 C   0  0  0  0  0  0  0  0  0  0  0  0
    1.8290   39.0310   10.7390 O   0  0  0  0  0  0  0  0  0  0  0  0
    4.2150   39.8050   12.3000 C   0  0  0  0  0  0  0  0  0  0  0  0
    0.8440   38.7470   12.7750 N   0  0  0  0  0  0  0  0  0  0  0  0
   -0.5300   38.8120   12.2980 C   0  0  2  0  0  0  0  0  0  0  0  0
   -0.8630   40.2250   11.8310 C   0  0  0  0  0  0  0  0  0  0  0  0
   -1.6070   40.3320   10.8470 O   0  0  0  0  0  0  0  0  0  0  0  0
   -1.4570   38.3540   13.4580 C   0  0  0  0  0  0  0  0  0  0  0  0
   -2.9760   38.4460   13.2630 C   0  0  0  0  0  0  0  0  0  0  0  0
   -3.6820   39.3570   12.5930 N   0  0  0  0  0  0  0  0  0  0  0  0
   -3.8920   37.5760   13.8430 C   0  0  0  0  0  0  0  0  0  0  0  0
   -4.9590   39.0840   12.7460 C   0  0  0  0  0  0  0  0  0  0  0  0
   -5.0820   38.0020   13.5080 N   0  3  0  0  0  0  0  0  0  0  0  0
   -0.4480   41.1620   12.5210 O   0  5  0  0  0  0  0  0  0  0  0  0
    4.2620   22.8550   24.5480 H   0  0  0  0  0  0  0  0  0  0  0  0
    3.8680   23.8790   25.7890 H   0  0  0  0  0  0  0  0  0  0  0  0
    4.7380   25.6450   24.8140 H   0  0  0  0  0  0  0  0  0  0  0  0
    6.9860   25.5380   23.9210 H   0  0  0  0  0  0  0  0  0  0  0  0
    6.8400   23.8720   23.4380 H   0  0  0  0  0  0  0  0  0  0  0  0
    6.8780   24.9530   26.2720 H   0  0  0  0  0  0  0  0  0  0  0  0
    7.8960   23.6650   25.6150 H   0  0  0  0  0  0  0  0  0  0  0  0
    6.0390   22.1280   25.5160 H   0  0  0  0  0  0  0  0  0  0  0  0
    5.5850   23.0460   26.9520 H   0  0  0  0  0  0  0  0  0  0  0  0
    4.7710   26.3990   22.3170 H   0  0  0  0  0  0  0  0  0  0  0  0
    3.9290   24.8750   20.1610 H   0  0  0  0  0  0  0  0  0  0  0  0
    1.4350   26.4270   20.7630 H   0  0  0  0  0  0  0  0  0  0  0  0
    1.7430   25.4010   22.1150 H   0  0  0  0  0  0  0  0  0  0  0  0
   -0.6860   24.8990   20.3620 H   0  0  0  0  0  0  0  0  0  0  0  0
    3.0630   23.0870   19.6170 H   0  0  0  0  0  0  0  0  0  0  0  0
   -0.9550   23.0230   18.8900 H   0  0  0  0  0  0  0  0  0  0  0  0
    1.2620   21.7970   18.6360 H   0  0  0  0  0  0  0  0  0  0  0  0
    4.7300   26.3390   18.5260 H   0  0  0  0  0  0  0  0  0  0  0  0
    4.5390   29.2540   19.3510 H   0  0  0  0  0  0  0  0  0  0  0  0
    6.5600   29.4100   17.9620 H   0  0  0  0  0  0  0  0  0  0  0  0
    6.5960   27.6910   17.7580 H   0  0  0  0  0  0  0  0  0  0  0  0
    6.7480   29.0310   20.5590 H   0  0  0  0  0  0  0  0  0  0  0  0
    7.8940   26.8920   21.1930 H   0  0  0  0  0  0  0  0  0  0  0  0
    6.3250   26.5110   20.6040 H   0  0  0  0  0  0  0  0  0  0  0  0
    7.7110   26.3080   19.5450 H   0  0  0  0  0  0  0  0  0  0  0  0
    9.3270   28.1550   20.1140 H   0  0  0  0  0  0  0  0  0  0  0  0
    8.8840   28.6060   18.4760 H   0  0  0  0  0  0  0  0  0  0  0  0
    8.7950   29.7680   19.7780 H   0  0  0  0  0  0  0  0  0  0  0  0
    3.7340   30.7780   18.0260 H   0  0  0  0  0  0  0  0  0  0  0  0
    2.7220   29.9920   15.3270 H   0  0  0  0  0  0  0  0  0  0  0  0
    0.6400   31.3230   15.7860 H   0  0  0  0  0  0  0  0  0  0  0  0
    1.1160   31.5080   17.4520 H   0  0  0  0  0  0  0  0  0  0  0  0
    0.8860   29.2300   17.6450 H   0  0  0  0  0  0  0  0  0  0  0  0
    4.8970   31.1110   14.9830 H   0  0  0  0  0  0  0  0  0  0  0  0
    4.7390   34.0800   15.2390 H   0  0  0  0  0  0  0  0  0  0  0  0
    7.0650   34.0510   14.8190 H   0  0  0  0  0  0  0  0  0  0  0  0
    7.0620   32.3580   14.4150 H   0  0  0  0  0  0  0  0  0  0  0  0
    8.7590   31.7660   15.9090 H   0  0  0  0  0  0  0  0  0  0  0  0
    5.2800   33.8080   17.4280 H   0  0  0  0  0  0  0  0  0  0  0  0
    9.4750   31.3130   18.2160 H   0  0  0  0  0  0  0  0  0  0  0  0
    6.0060   33.3250   19.7130 H   0  0  0  0  0  0  0  0  0  0  0  0
    8.1010   32.0880   20.1300 H   0  0  0  0  0  0  0  0  0  0  0  0
    5.3950   32.7050   12.6070 H   0  0  0  0  0  0  0  0  0  0  0  0
    5.6330   34.3920   13.0090 H   0  0  0  0  0  0  0  0  0  0  0  0
    3.0840   33.9720   13.6220 H   0  0  0  0  0  0  0  0  0  0  0  0
    3.3130   32.9860   12.3230 H   0  0  0  0  0  0  0  0  0  0  0  0
    4.4000   34.9820   11.3220 H   0  0  0  0  0  0  0  0  0  0  0  0
    2.6440   34.0250   10.1460 H   0  0  0  0  0  0  0  0  0  0  0  0
    2.0500   35.5920   10.4270 H   0  0  0  0  0  0  0  0  0  0  0  0
    1.1840   33.5700   12.4630 H   0  0  0  0  0  0  0  0  0  0  0  0
    0.5970   33.3710   10.8530 H   0  0  0  0  0  0  0  0  0  0  0  0
   -1.8550   35.2070   13.6210 H   0  0  0  0  0  0  0  0  0  0  0  0
   -1.7390   33.6950   12.7290 H   0  0  0  0  0  0  0  0  0  0  0  0
   -0.4650   34.1270   13.8420 H   0  0  0  0  0  0  0  0  0  0  0  0
    3.8910   37.4650   11.0820 H   0  0  0  0  0  0  0  0  0  0  0  0
    3.1260   38.6820   13.7670 H   0  0  0  0  0  0  0  0  0  0  0  0
    3.9050   40.7700   12.7020 H   0  0  0  0  0  0  0  0  0  0  0  0
    5.2040   39.5870   12.7060 H   0  0  0  0  0  0  0  0  0  0  0  0
    4.3220   39.9120   11.2190 H   0  0  0  0  0  0  0  0  0  0  0  0
    0.9990   38.6110   13.7630 H   0  0  0  0  0  0  0  0  0  0  0  0
   -0.6540   38.1380   11.4500 H   0  0  0  0  0  0  0  0  0  0  0  0
   -1.2370   38.9690   14.3320 H   0  0  0  0  0  0  0  0  0  0  0  0
   -1.2010   37.3410   13.7590 H   0  0  0  0  0  0  0  0  0  0  0  0
   -3.2820   40.0990   12.0260 H   0  0  0  0  0  0  0  0  0  0  0  0
   -3.7640   36.7080   14.4740 H   0  0  0  0  0  0  0  0  0  0  0  0
   -5.7750   39.6370   12.3040 H   0  0  0  0  0  0  0  0  0  0  0  0
   -5.9550   37.5630   13.7670 H   0  0  0  0  0  0  0  0  0  0  0  0
  1 67  1  0  0  0  0
  1  7  1  0  0  0  0
  2 68  1  1  0  0  0
  2  1  1  0  0  0  0
  3  2  1  0  0  0  0
  4  3  2  0  0  0  0
  5  2  1  0  0  0  0
  5  6  1  0  0  0  0
  6 72  1  0  0  0  0
  6  7  1  0  0  0  0
  6 71  1  0  0  0  0
  7 74  1  0  0  0  0
  8 75  1  0  0  0  0
  8  3  1  0  0  0  0
  9 76  1  6  0  0  0
  9 12  1  0  0  0  0
  9  8  1  0  0  0  0
 10  9  1  0  0  0  0
 10 11  2  0  0  0  0
 12 78  1  0  0  0  0
 13 12  1  0  0  0  0
 14 13  1  0  0  0  0
 14 79  1  0  0  0  0
 15 13  2  0  0  0  0
 16 14  1  0  0  0  0
 17 16  2  0  0  0  0
 17 15  1  0  0  0  0
 18 10  1  0  0  0  0
 19 18  1  0  0  0  0
 19 84  1  1  0  0  0
 20 19  1  0  0  0  0
 21 20  2  0  0  0  0
 22 19  1  0  0  0  0
 22 23  1  0  0  0  0
 23 24  1  0  0  0  0
 23 87  1  0  0  0  0
 24 89  1  0  0  0  0
 24 88  1  0  0  0  0
 25 93  1  0  0  0  0
 25 23  1  0  0  0  0
 25 91  1  0  0  0  0
 26 20  1  0  0  0  0
 26 94  1  0  0  0  0
 27 95  1  6  0  0  0
 27 30  1  0  0  0  0
 27 26  1  0  0  0  0
 28 29  2  0  0  0  0
 28 27  1  0  0  0  0
 30 31  1  0  0  0  0
 30 97  1  0  0  0  0
 31 98  1  0  0  0  0
 32 28  1  0  0  0  0
 33 34  1  0  0  0  0
 33 32  1  0  0  0  0
 33100  1  1  0  0  0
 34 35  1  0  0  0  0
 35 36  2  0  0  0  0
 35 37  1  0  0  0  0
 36 38  1  0  0  0  0
 37 39  2  0  0  0  0
 38105  1  0  0  0  0
 38 40  2  0  0  0  0
 39 40  1  0  0  0  0
 39106  1  0  0  0  0
 40107  1  0  0  0  0
 41 33  1  0  0  0  0
 42 41  1  0  0  0  0
 42110  1  0  0  0  0
 43112  1  6  0  0  0
 43 48  1  0  0  0  0
 43 42  1  0  0  0  0
 44 45  1  0  0  0  0
 44 43  1  0  0  0  0
 45 46  1  0  0  0  0
 45115  1  0  0  0  0
 46 47  1  0  0  0  0
 47117  1  0  0  0  0
 47119  1  0  0  0  0
 48 49  2  0  0  0  0
 50 48  1  0  0  0  0
 50 51  1  0  0  0  0
 51121  1  1  0  0  0
 52 51  1  0  0  0  0
 52 55  1  0  0  0  0
 53 52  2  0  0  0  0
 54 51  1  0  0  0  0
 54122  1  0  0  0  0
 54123  1  0  0  0  0
 55125  1  0  0  0  0
 56126  1  6  0  0  0
 56 55  1  0  0  0  0
 56 59  1  0  0  0  0
 57 56  1  0  0  0  0
 57 65  1  0  0  0  0
 58 57  2  0  0  0  0
 59128  1  0  0  0  0
 59127  1  0  0  0  0
 60 59  1  0  0  0  0
 60 62  2  0  0  0  0
 61 63  1  0  0  0  0
 61 60  1  0  0  0  0
 62130  1  0  0  0  0
 63 64  2  0  0  0  0
 64132  1  0  0  0  0
 64 62  1  0  0  0  0
 66  1  1  0  0  0  0
 69  5  1  0  0  0  0
 70  5  1  0  0  0  0
 73  7  1  0  0  0  0
 77 12  1  0  0  0  0
 80 15  1  0  0  0  0
 81 16  1  0  0  0  0
 82 17  1  0  0  0  0
 83 18  1  0  0  0  0
 85 22  1  0  0  0  0
 86 22  1  0  0  0  0
 90 24  1  0  0  0  0
 92 25  1  0  0  0  0
 96 30  1  0  0  0  0
 99 32  1  0  0  0  0
101 34  1  0  0  0  0
102 34  1  0  0  0  0
103 36  1  0  0  0  0
104 37  1  0  0  0  0
108 41  1  0  0  0  0
109 41  1  0  0  0  0
111 42  1  0  0  0  0
113 44  1  0  0  0  0
114 44  1  0  0  0  0
116 45  1  0  0  0  0
118 47  1  0  0  0  0
120 50  1  0  0  0  0
124 54  1  0  0  0  0
129 61  1  0  0  0  0
131 63  1  0  0  0  0
M  CHG  5   1   1  17   1  42   1  64   1  65  -1
M  END
$$$$
