1yc1_ligand_rnum.pdb
 OpenBabel02151809393D

 42 45  0  0  0  0  0  0  0  0999 V2000
    2.2240   35.5070   -4.3740 C   0  0  0  0  0  0  0  0  0  0  0  0
    2.9190   36.2840   -3.4530 C   0  0  0  0  0  0  0  0  0  0  0  0
    4.2550   36.5260   -3.3050 O   0  0  0  0  0  0  0  0  0  0  0  0
    4.3940   37.3790   -2.2370 C   0  0  0  0  0  0  0  0  0  0  0  0
    3.1580   37.6640   -1.7130 O   0  0  0  0  0  0  0  0  0  0  0  0
    2.2370   36.9820   -2.4570 C   0  0  0  0  0  0  0  0  0  0  0  0
    0.8510   36.9120   -2.3570 C   0  0  0  0  0  0  0  0  0  0  0  0
    0.1620   36.1260   -3.2760 C   0  0  0  0  0  0  0  0  0  0  0  0
    0.8380   35.4280   -4.2760 C   0  0  0  0  0  0  0  0  0  0  0  0
    0.1490   34.5980   -5.1600 C   0  0  0  0  0  0  0  0  0  0  0  0
    0.0490   34.6960   -6.5420 C   0  0  0  0  0  0  0  0  0  0  0  0
    0.6670   35.7460   -7.4670 C   0  0  0  0  0  0  0  0  0  0  0  0
    0.7830   35.4750   -8.6620 O   0  5  0  0  0  0  0  0  0  0  0  0
    1.0430   36.8370   -7.0350 O   0  0  0  0  0  0  0  0  0  0  0  0
   -0.7540   33.7190   -6.9620 N   0  0  0  0  0  0  0  0  0  0  0  0
   -0.6350   33.4940   -4.8430 C   0  0  0  0  0  0  0  0  0  0  0  0
   -1.1390   33.0470   -5.9970 N   0  0  0  0  0  0  0  0  0  0  0  0
   -0.7130   32.9160   -3.5760 C   0  0  0  0  0  0  0  0  0  0  0  0
    0.4280   32.7190   -2.7970 C   0  0  0  0  0  0  0  0  0  0  0  0
    0.3370   32.2030   -1.5060 C   0  0  0  0  0  0  0  0  0  0  0  0
    1.6230   31.8700   -0.7440 C   0  0  0  0  0  0  0  0  0  0  0  0
    1.9390   30.3770   -0.8750 C   0  0  0  0  0  0  0  0  0  0  0  0
   -0.9120   31.9090   -0.9690 C   0  0  0  0  0  0  0  0  0  0  0  0
   -1.0080   31.6250    0.3610 O   0  0  0  0  0  0  0  0  0  0  0  0
   -2.0550   32.0720   -1.7480 C   0  0  0  0  0  0  0  0  0  0  0  0
   -1.9510   32.5650   -3.0490 C   0  0  0  0  0  0  0  0  0  0  0  0
   -3.0640   32.6950   -3.8160 O   0  0  0  0  0  0  0  0  0  0  0  0
    2.7560   34.9610   -5.1370 H   0  0  0  0  0  0  0  0  0  0  0  0
    4.8710   38.3020   -2.5670 H   0  0  0  0  0  0  0  0  0  0  0  0
    5.0130   36.9080   -1.4730 H   0  0  0  0  0  0  0  0  0  0  0  0
    0.3290   37.4740   -1.5990 H   0  0  0  0  0  0  0  0  0  0  0  0
   -0.9120   36.0580   -3.2150 H   0  0  0  0  0  0  0  0  0  0  0  0
   -1.0040   33.5170   -7.9220 H   0  0  0  0  0  0  0  0  0  0  0  0
    1.4020   32.9420   -3.2070 H   0  0  0  0  0  0  0  0  0  0  0  0
    1.5220   32.1390    0.3060 H   0  0  0  0  0  0  0  0  0  0  0  0
    2.4480   32.4660   -1.1350 H   0  0  0  0  0  0  0  0  0  0  0  0
    2.8670   30.1180   -0.3730 H   0  0  0  0  0  0  0  0  0  0  0  0
    1.1490   29.7640   -0.4420 H   0  0  0  0  0  0  0  0  0  0  0  0
    2.0450   30.0930   -1.9210 H   0  0  0  0  0  0  0  0  0  0  0  0
   -1.9020   31.5220    0.6500 H   0  0  0  0  0  0  0  0  0  0  0  0
   -3.0260   31.8520   -1.3300 H   0  0  0  0  0  0  0  0  0  0  0  0
   -3.8410   32.2980   -3.4340 H   0  0  0  0  0  0  0  0  0  0  0  0
  1  9  2  0  0  0  0
  1  2  1  0  0  0  0
  2  3  1  0  0  0  0
  2  6  2  0  0  0  0
  3  4  1  0  0  0  0
  4  5  1  0  0  0  0
  4 30  1  0  0  0  0
  6  7  1  0  0  0  0
  6  5  1  0  0  0  0
  7 31  1  0  0  0  0
  8 32  1  0  0  0  0
  8  7  2  0  0  0  0
  9  8  1  0  0  0  0
 10 16  1  0  0  0  0
 10  9  1  0  0  0  0
 11 10  2  0  0  0  0
 12 14  1  0  0  0  0
 12 11  1  0  0  0  0
 13 12  2  0  0  0  0
 15 11  1  0  0  0  0
 15 17  1  0  0  0  0
 16 18  1  0  0  0  0
 17 16  2  0  0  0  0
 18 26  2  0  0  0  0
 18 19  1  0  0  0  0
 19 20  2  0  0  0  0
 20 23  1  0  0  0  0
 20 21  1  0  0  0  0
 21 35  1  0  0  0  0
 22 21  1  0  0  0  0
 22 38  1  0  0  0  0
 22 37  1  0  0  0  0
 23 24  1  0  0  0  0
 24 40  1  0  0  0  0
 25 41  1  0  0  0  0
 25 23  2  0  0  0  0
 26 25  1  0  0  0  0
 27 42  1  0  0  0  0
 27 26  1  0  0  0  0
 28  1  1  0  0  0  0
 29  4  1  0  0  0  0
 33 15  1  0  0  0  0
 34 19  1  0  0  0  0
 36 21  1  0  0  0  0
 39 22  1  0  0  0  0
M  CHG  1  13  -1
M  END
$$$$
