4gid_ligand_rnum.pdb
 OpenBabel02151809393D

 95 97  0  0  1  0  0  0  0  0999 V2000
   49.5370   -2.5550    8.2710 C   0  0  0  0  0  0  0  0  0  0  0  0
   48.9440   -3.5780    9.2390 C   0  0  0  0  0  0  0  0  0  0  0  0
   50.0680   -4.4590    9.7920 C   0  0  0  0  0  0  0  0  0  0  0  0
   48.1820   -2.8490   10.3470 C   0  0  0  0  0  0  0  0  0  0  0  0
   47.1100   -2.0110    9.7820 N   0  0  0  0  0  0  0  0  0  0  0  0
   45.8260   -2.3550   10.4130 C   0  0  0  0  0  0  0  0  0  0  0  0
   45.8020   -2.8950   11.5220 O   0  0  0  0  0  0  0  0  0  0  0  0
   44.6790   -1.4430    9.9430 C   0  0  2  0  0  0  0  0  0  0  0  0
   44.7780   -0.0930   10.6690 C   0  0  1  0  0  0  0  0  0  0  0  0
   44.1370   -0.1340   12.0570 C   0  0  0  0  0  0  0  0  0  0  0  0
   46.1190    0.4110   10.6990 O   0  0  0  0  0  0  0  0  0  0  0  0
   43.3350   -2.0220   10.0970 N   0  3  0  0  0  0  0  0  0  0  0  0
   43.1900   -3.2130    9.2450 C   0  0  0  0  0  0  0  0  0  0  0  0
   42.5960   -4.4150    9.9860 C   0  0  2  0  0  0  0  0  0  0  0  0
   42.4160   -5.5960    9.0260 C   0  0  0  0  0  0  0  0  0  0  0  0
   41.7140   -6.6480    9.6120 C   0  0  0  0  0  0  0  0  0  0  0  0
   40.7020   -7.2960    8.9110 C   0  0  0  0  0  0  0  0  0  0  0  0
   39.9550   -8.3050    9.5120 C   0  0  0  0  0  0  0  0  0  0  0  0
   40.2100   -8.6710   10.8290 C   0  0  0  0  0  0  0  0  0  0  0  0
   41.2180   -8.0210   11.5330 C   0  0  0  0  0  0  0  0  0  0  0  0
   41.9720   -7.0220   10.9270 C   0  0  0  0  0  0  0  0  0  0  0  0
   41.3080   -4.1170   10.6290 N   0  0  0  0  0  0  0  0  0  0  0  0
   41.2570   -3.7410   11.9150 C   0  0  0  0  0  0  0  0  0  0  0  0
   42.2680   -3.5630   12.5920 O   0  0  0  0  0  0  0  0  0  0  0  0
   39.9770   -3.5540   12.4310 C   0  0  0  0  0  0  0  0  0  0  0  0
   38.9820   -4.4400   12.0330 C   0  0  0  0  0  0  0  0  0  0  0  0
   39.7370   -2.7010   13.5060 C   0  0  0  0  0  0  0  0  0  0  0  0
   38.5080   -2.6970   14.1650 C   0  0  0  0  0  0  0  0  0  0  0  0
   38.3320   -2.0310   15.3090 N   0  0  0  0  0  0  0  0  0  0  0  0
   39.4840   -1.1980   15.6850 C   0  0  0  0  0  0  0  0  0  0  0  0
   36.9310   -1.1840   15.4610 S   0  0  0  0  0  0  0  0  0  0  0  0
   37.2200    0.2310   15.9630 O   0  0  0  0  0  0  0  0  0  0  0  0
   36.1900   -1.1020   14.1240 O   0  0  0  0  0  0  0  0  0  0  0  0
   35.8860   -2.0180   16.6380 C   0  0  0  0  0  0  0  0  0  0  0  0
   37.5450   -3.6220   13.7750 C   0  0  0  0  0  0  0  0  0  0  0  0
   37.7670   -4.4860   12.7070 C   0  0  0  0  0  0  0  0  0  0  0  0
   36.7290   -5.2760   12.2270 C   0  0  0  0  0  0  0  0  0  0  0  0
   35.9770   -5.8600   13.0060 O   0  0  0  0  0  0  0  0  0  0  0  0
   36.7090   -5.4920   10.9040 N   0  0  0  0  0  0  0  0  0  0  0  0
   35.6560   -6.3180   10.2940 C   0  0  2  0  0  0  0  0  0  0  0  0
   36.2840   -7.4870    9.5320 C   0  0  0  0  0  0  0  0  0  0  0  0
   34.8310   -5.5730    9.4540 C   0  0  0  0  0  0  0  0  0  0  0  0
   33.4700   -5.4970    9.7240 C   0  0  0  0  0  0  0  0  0  0  0  0
   32.6490   -4.6400    8.9940 C   0  0  0  0  0  0  0  0  0  0  0  0
   33.1900   -3.8500    7.9860 C   0  0  0  0  0  0  0  0  0  0  0  0
   34.5520   -3.9280    7.7070 C   0  0  0  0  0  0  0  0  0  0  0  0
   35.3660   -4.7930    8.4320 C   0  0  0  0  0  0  0  0  0  0  0  0
   48.7710   -1.9660    7.7690 H   0  0  0  0  0  0  0  0  0  0  0  0
   50.2070   -1.8620    8.7800 H   0  0  0  0  0  0  0  0  0  0  0  0
   50.1130   -3.0470    7.4860 H   0  0  0  0  0  0  0  0  0  0  0  0
   48.2490   -4.2170    8.6910 H   0  0  0  0  0  0  0  0  0  0  0  0
   49.6630   -5.2580   10.4110 H   0  0  0  0  0  0  0  0  0  0  0  0
   50.6330   -4.9320    8.9880 H   0  0  0  0  0  0  0  0  0  0  0  0
   50.7680   -3.8850   10.3990 H   0  0  0  0  0  0  0  0  0  0  0  0
   48.8600   -2.1850   10.8850 H   0  0  0  0  0  0  0  0  0  0  0  0
   47.9080   -3.6170   11.0650 H   0  0  0  0  0  0  0  0  0  0  0  0
   47.2230   -1.4210    8.9690 H   0  0  0  0  0  0  0  0  0  0  0  0
   44.7990   -1.2340    8.8880 H   0  0  0  0  0  0  0  0  0  0  0  0
   44.2230    0.6400   10.0840 H   0  0  0  0  0  0  0  0  0  0  0  0
   44.6460    0.5600   12.7250 H   0  0  0  0  0  0  0  0  0  0  0  0
   43.0940    0.1820   12.0010 H   0  0  0  0  0  0  0  0  0  0  0  0
   44.1120   -1.1690   12.3730 H   0  0  0  0  0  0  0  0  0  0  0  0
   46.1080    1.2830   11.0630 H   0  0  0  0  0  0  0  0  0  0  0  0
   42.6570   -1.3240    9.7930 H   0  0  0  0  0  0  0  0  0  0  0  0
   43.1720   -2.2650   11.0640 H   0  0  0  0  0  0  0  0  0  0  0  0
   44.1160   -3.5150    8.7530 H   0  0  0  0  0  0  0  0  0  0  0  0
   42.5240   -2.9300    8.4300 H   0  0  0  0  0  0  0  0  0  0  0  0
   43.3420   -4.6950   10.7190 H   0  0  0  0  0  0  0  0  0  0  0  0
   43.3830   -5.9620    8.6800 H   0  0  0  0  0  0  0  0  0  0  0  0
   41.8840   -5.2520    8.1380 H   0  0  0  0  0  0  0  0  0  0  0  0
   40.4920   -7.0030    7.8970 H   0  0  0  0  0  0  0  0  0  0  0  0
   39.1720   -8.8000    8.9580 H   0  0  0  0  0  0  0  0  0  0  0  0
   39.6330   -9.4550   11.2980 H   0  0  0  0  0  0  0  0  0  0  0  0
   41.3620   -8.3780   12.5310 H   0  0  0  0  0  0  0  0  0  0  0  0
   42.7500   -6.5620   11.5100 H   0  0  0  0  0  0  0  0  0  0  0  0
   40.4520   -4.2350   10.1000 H   0  0  0  0  0  0  0  0  0  0  0  0
   39.1810   -5.1920   11.2820 H   0  0  0  0  0  0  0  0  0  0  0  0
   40.5850   -2.1000   13.7930 H   0  0  0  0  0  0  0  0  0  0  0  0
   39.3180   -0.6300   16.6000 H   0  0  0  0  0  0  0  0  0  0  0  0
   40.3000   -1.8650   15.9530 H   0  0  0  0  0  0  0  0  0  0  0  0
   39.8440   -0.5250   14.9140 H   0  0  0  0  0  0  0  0  0  0  0  0
   34.9510   -1.4700   16.7410 H   0  0  0  0  0  0  0  0  0  0  0  0
   35.6800   -3.0310   16.2970 H   0  0  0  0  0  0  0  0  0  0  0  0
   36.3930   -2.0590   17.6020 H   0  0  0  0  0  0  0  0  0  0  0  0
   36.6050   -3.6830   14.3030 H   0  0  0  0  0  0  0  0  0  0  0  0
   37.3850   -5.0380   10.3050 H   0  0  0  0  0  0  0  0  0  0  0  0
   35.0370   -6.7990   11.0540 H   0  0  0  0  0  0  0  0  0  0  0  0
   35.5330   -8.1330    9.0880 H   0  0  0  0  0  0  0  0  0  0  0  0
   36.9370   -7.1460    8.7270 H   0  0  0  0  0  0  0  0  0  0  0  0
   36.8910   -8.1020   10.1960 H   0  0  0  0  0  0  0  0  0  0  0  0
   33.0970   -6.0510   10.5570 H   0  0  0  0  0  0  0  0  0  0  0  0
   31.6060   -4.5640    9.1630 H   0  0  0  0  0  0  0  0  0  0  0  0
   32.5470   -3.2010    7.4120 H   0  0  0  0  0  0  0  0  0  0  0  0
   34.9700   -3.3170    6.9240 H   0  0  0  0  0  0  0  0  0  0  0  0
   36.4210   -4.8300    8.2090 H   0  0  0  0  0  0  0  0  0  0  0  0
  1 49  1  0  0  0  0
  1  2  1  0  0  0  0
  2  3  1  0  0  0  0
  2  4  1  0  0  0  0
  3 54  1  0  0  0  0
  3 52  1  0  0  0  0
  4 55  1  0  0  0  0
  4 56  1  0  0  0  0
  5  4  1  0  0  0  0
  5  6  1  0  0  0  0
  6  7  2  0  0  0  0
  8 58  1  6  0  0  0
  8 12  1  0  0  0  0
  8  6  1  0  0  0  0
  8  9  1  0  0  0  0
  9 59  1  6  0  0  0
  9 11  1  0  0  0  0
  9 10  1  0  0  0  0
 10 62  1  0  0  0  0
 10 60  1  0  0  0  0
 11 63  1  0  0  0  0
 12 65  1  0  0  0  0
 13 14  1  0  0  0  0
 13 12  1  0  0  0  0
 14 22  1  0  0  0  0
 14 68  1  1  0  0  0
 15 16  1  0  0  0  0
 15 14  1  0  0  0  0
 16 21  2  0  0  0  0
 17 18  2  0  0  0  0
 17 16  1  0  0  0  0
 18 19  1  0  0  0  0
 19 73  1  0  0  0  0
 19 20  2  0  0  0  0
 20 74  1  0  0  0  0
 21 75  1  0  0  0  0
 21 20  1  0  0  0  0
 22 23  1  0  0  0  0
 23 25  1  0  0  0  0
 23 24  2  0  0  0  0
 25 27  1  0  0  0  0
 26 25  2  0  0  0  0
 26 36  1  0  0  0  0
 27 78  1  0  0  0  0
 27 28  2  0  0  0  0
 28 29  1  0  0  0  0
 29 31  1  0  0  0  0
 29 30  1  0  0  0  0
 30 80  1  0  0  0  0
 30 79  1  0  0  0  0
 31 32  2  0  0  0  0
 31 34  1  0  0  0  0
 33 31  2  0  0  0  0
 34 82  1  0  0  0  0
 34 84  1  0  0  0  0
 35 28  1  0  0  0  0
 35 85  1  0  0  0  0
 36 35  2  0  0  0  0
 37 36  1  0  0  0  0
 37 38  2  0  0  0  0
 39 37  1  0  0  0  0
 40 39  1  0  0  0  0
 40 87  1  1  0  0  0
 41 90  1  0  0  0  0
 41 40  1  0  0  0  0
 42 43  1  0  0  0  0
 42 40  1  0  0  0  0
 43 91  1  0  0  0  0
 44 92  1  0  0  0  0
 44 43  2  0  0  0  0
 45 44  1  0  0  0  0
 46 45  2  0  0  0  0
 46 47  1  0  0  0  0
 47 42  2  0  0  0  0
 48  1  1  0  0  0  0
 50  1  1  0  0  0  0
 51  2  1  0  0  0  0
 53  3  1  0  0  0  0
 57  5  1  0  0  0  0
 61 10  1  0  0  0  0
 64 12  1  0  0  0  0
 66 13  1  0  0  0  0
 67 13  1  0  0  0  0
 69 15  1  0  0  0  0
 70 15  1  0  0  0  0
 71 17  1  0  0  0  0
 72 18  1  0  0  0  0
 76 22  1  0  0  0  0
 77 26  1  0  0  0  0
 81 30  1  0  0  0  0
 83 34  1  0  0  0  0
 86 39  1  0  0  0  0
 88 41  1  0  0  0  0
 89 41  1  0  0  0  0
 93 45  1  0  0  0  0
 94 46  1  0  0  0  0
 95 47  1  0  0  0  0
M  CHG  1  12   1
M  END
$$$$
