1sqa_ligand_rnum.pdb
 OpenBabel02151809393D

 54 57  0  0  0  0  0  0  0  0999 V2000
   29.5520   11.8530   28.7170 N   0  3  0  0  0  0  0  0  0  0  0  0
   28.3300   11.0730   28.8590 C   0  0  0  0  0  0  0  0  0  0  0  0
   27.2630   11.8440   29.6510 C   0  0  0  0  0  0  0  0  0  0  0  0
   26.5790   12.9060   29.0380 C   0  0  0  0  0  0  0  0  0  0  0  0
   25.6020   13.6060   29.7610 C   0  0  0  0  0  0  0  0  0  0  0  0
   25.2850   13.2590   31.1110 C   0  0  0  0  0  0  0  0  0  0  0  0
   24.2440   14.0730   31.6860 N   0  0  0  0  0  0  0  0  0  0  0  0
   24.5160   14.9930   32.5920 C   0  0  0  0  0  0  0  0  0  0  0  0
   25.6530   15.1500   33.0210 O   0  0  0  0  0  0  0  0  0  0  0  0
   23.4180   15.9110   33.0260 C   0  0  0  0  0  0  0  0  0  0  0  0
   23.7630   16.9690   33.8980 C   0  0  0  0  0  0  0  0  0  0  0  0
   22.8180   17.8960   34.2740 C   0  0  0  0  0  0  0  0  0  0  0  0
   23.2180   18.9970   35.1110 N   0  0  0  0  0  0  0  0  0  0  0  0
   23.7200   18.8390   36.4290 C   0  0  0  0  0  0  0  0  0  0  0  0
   24.1540   19.9420   37.0850 N   0  0  0  0  0  0  0  0  0  0  0  0
   24.6250   19.8550   38.3490 C   0  0  0  0  0  0  0  0  0  0  0  0
   24.6580   18.6020   38.9980 C   0  0  0  0  0  0  0  0  0  0  0  0
   24.2060   17.4800   38.2880 C   0  0  0  0  0  0  0  0  0  0  0  0
   23.7470   17.6250   37.0220 N   0  0  0  0  0  0  0  0  0  0  0  0
   21.4730   17.7830   33.7830 C   0  0  0  0  0  0  0  0  0  0  0  0
   20.5150   18.7550   34.1600 C   0  0  0  0  0  0  0  0  0  0  0  0
   19.1860   18.6620   33.6930 C   0  0  0  0  0  0  0  0  0  0  0  0
   18.8010   17.5980   32.8540 C   0  0  0  0  0  0  0  0  0  0  0  0
   19.7560   16.6250   32.4690 C   0  0  0  0  0  0  0  0  0  0  0  0
   21.1010   16.7220   32.9310 C   0  0  0  0  0  0  0  0  0  0  0  0
   22.0770   15.7770   32.5410 C   0  0  0  0  0  0  0  0  0  0  0  0
   18.2380   19.7150   34.1260 C   0  0  0  0  0  0  0  0  0  0  0  0
   18.6560   20.6930   34.8790 N   0  3  0  0  0  0  0  0  0  0  0  0
   16.9650   19.6770   33.7560 N   0  0  0  0  0  0  0  0  0  0  0  0
   25.9580   12.1980   31.7280 C   0  0  0  0  0  0  0  0  0  0  0  0
   26.9590   11.4880   30.9910 C   0  0  0  0  0  0  0  0  0  0  0  0
   30.2300   11.3050   28.2040 H   0  0  0  0  0  0  0  0  0  0  0  0
   29.3560   12.7060   28.2140 H   0  0  0  0  0  0  0  0  0  0  0  0
   29.9200   12.0730   29.6310 H   0  0  0  0  0  0  0  0  0  0  0  0
   28.5620   10.1300   29.3560 H   0  0  0  0  0  0  0  0  0  0  0  0
   27.9430   10.8230   27.8700 H   0  0  0  0  0  0  0  0  0  0  0  0
   26.8990   13.1520   28.0510 H   0  0  0  0  0  0  0  0  0  0  0  0
   25.0860   14.4260   29.2820 H   0  0  0  0  0  0  0  0  0  0  0  0
   23.3370   14.0670   31.2440 H   0  0  0  0  0  0  0  0  0  0  0  0
   24.7750   17.0840   34.2600 H   0  0  0  0  0  0  0  0  0  0  0  0
   22.9050   19.9270   34.8700 H   0  0  0  0  0  0  0  0  0  0  0  0
   24.9560   20.7630   38.8310 H   0  0  0  0  0  0  0  0  0  0  0  0
   25.0210   18.5080   40.0110 H   0  0  0  0  0  0  0  0  0  0  0  0
   24.2050   16.4980   38.7330 H   0  0  0  0  0  0  0  0  0  0  0  0
   20.8110   19.5360   34.8250 H   0  0  0  0  0  0  0  0  0  0  0  0
   17.7880   17.5090   32.4890 H   0  0  0  0  0  0  0  0  0  0  0  0
   19.4640   15.8150   31.8160 H   0  0  0  0  0  0  0  0  0  0  0  0
   21.8060   14.9870   31.8600 H   0  0  0  0  0  0  0  0  0  0  0  0
   17.9710   21.3110   35.3110 H   0  0  0  0  0  0  0  0  0  0  0  0
   19.6320   20.7800   35.1310 H   0  0  0  0  0  0  0  0  0  0  0  0
   16.3180   20.3660   34.1240 H   0  0  0  0  0  0  0  0  0  0  0  0
   16.6020   18.8750   33.2610 H   0  0  0  0  0  0  0  0  0  0  0  0
   25.7260   11.9190   32.7460 H   0  0  0  0  0  0  0  0  0  0  0  0
   27.4800   10.6690   31.4640 H   0  0  0  0  0  0  0  0  0  0  0  0
  1  2  1  0  0  0  0
  1 34  1  0  0  0  0
  2 35  1  0  0  0  0
  2  3  1  0  0  0  0
  3 31  1  0  0  0  0
  4  3  2  0  0  0  0
  4  5  1  0  0  0  0
  5  6  2  0  0  0  0
  6  7  1  0  0  0  0
  6 30  1  0  0  0  0
  7  8  1  0  0  0  0
  8  9  2  0  0  0  0
  8 10  1  0  0  0  0
 10 11  2  0  0  0  0
 11 40  1  0  0  0  0
 11 12  1  0  0  0  0
 12 13  1  0  0  0  0
 13 14  1  0  0  0  0
 14 19  1  0  0  0  0
 14 15  2  0  0  0  0
 15 16  1  0  0  0  0
 16 42  1  0  0  0  0
 16 17  2  0  0  0  0
 17 43  1  0  0  0  0
 18 44  1  0  0  0  0
 18 17  1  0  0  0  0
 19 18  2  0  0  0  0
 20 21  1  0  0  0  0
 20 12  2  0  0  0  0
 21 45  1  0  0  0  0
 22 27  1  0  0  0  0
 22 21  2  0  0  0  0
 23 22  1  0  0  0  0
 24 23  2  0  0  0  0
 24 25  1  0  0  0  0
 25 20  1  0  0  0  0
 26 25  2  0  0  0  0
 26 10  1  0  0  0  0
 27 28  1  0  0  0  0
 28 50  1  0  0  0  0
 28 49  1  0  0  0  0
 29 51  1  0  0  0  0
 29 27  2  0  0  0  0
 30 53  1  0  0  0  0
 31 54  1  0  0  0  0
 31 30  2  0  0  0  0
 32  1  1  0  0  0  0
 33  1  1  0  0  0  0
 36  2  1  0  0  0  0
 37  4  1  0  0  0  0
 38  5  1  0  0  0  0
 39  7  1  0  0  0  0
 41 13  1  0  0  0  0
 46 23  1  0  0  0  0
 47 24  1  0  0  0  0
 48 26  1  0  0  0  0
 52 29  1  0  0  0  0
M  CHG  2   1   1  28   1
M  END
$$$$
