3k5v_ligand_rnum.pdb
 OpenBabel02151809393D

 40 42  0  0  0  0  0  0  0  0999 V2000
   16.7690   38.2120   48.9130 F   0  0  0  0  0  0  0  0  0  0  0  0
   17.3270   38.7500   50.0250 C   0  0  0  0  0  0  0  0  0  0  0  0
   16.5120   38.6120   51.1080 F   0  0  0  0  0  0  0  0  0  0  0  0
   18.5320   38.1730   50.2750 F   0  0  0  0  0  0  0  0  0  0  0  0
   17.5150   40.1250   49.7490 O   0  0  0  0  0  0  0  0  0  0  0  0
   18.0890   40.9540   50.7170 C   0  0  0  0  0  0  0  0  0  0  0  0
   19.4740   41.2320   50.7140 C   0  0  0  0  0  0  0  0  0  0  0  0
   20.0180   42.0800   51.6830 C   0  0  0  0  0  0  0  0  0  0  0  0
   19.2070   42.6490   52.6690 C   0  0  0  0  0  0  0  0  0  0  0  0
   17.8240   42.3790   52.6550 C   0  0  0  0  0  0  0  0  0  0  0  0
   17.2730   41.5340   51.6840 C   0  0  0  0  0  0  0  0  0  0  0  0
   19.6440   43.4880   53.6350 N   0  0  0  0  0  0  0  0  0  0  0  0
   20.9160   43.8190   53.9800 C   0  0  0  0  0  0  0  0  0  0  0  0
   22.0110   43.3680   53.3070 N   0  0  0  0  0  0  0  0  0  0  0  0
   23.2650   43.7190   53.6850 C   0  0  0  0  0  0  0  0  0  0  0  0
   23.4470   44.5390   54.7480 N   0  0  0  0  0  0  0  0  0  0  0  0
   22.3930   45.0220   55.4550 C   0  0  0  0  0  0  0  0  0  0  0  0
   21.0870   44.6670   55.0730 C   0  0  0  0  0  0  0  0  0  0  0  0
   22.6470   45.9230   56.6020 C   0  0  0  0  0  0  0  0  0  0  0  0
   23.8620   46.6160   56.6180 C   0  0  0  0  0  0  0  0  0  0  0  0
   24.1870   47.4950   57.6510 C   0  0  0  0  0  0  0  0  0  0  0  0
   23.2770   47.6830   58.7090 C   0  0  0  0  0  0  0  0  0  0  0  0
   22.0520   46.9900   58.7050 C   0  0  0  0  0  0  0  0  0  0  0  0
   21.7330   46.1090   57.6520 C   0  0  0  0  0  0  0  0  0  0  0  0
   25.5380   48.1710   57.5250 C   0  0  0  0  0  0  0  0  0  0  0  0
   25.6350   49.0640   56.6990 O   0  0  0  0  0  0  0  0  0  0  0  0
   26.6090   47.7820   58.2540 N   0  0  0  0  0  0  0  0  0  0  0  0
   20.1120   40.7950   49.9610 H   0  0  0  0  0  0  0  0  0  0  0  0
   21.0620   42.2650   51.5640 H   0  0  0  0  0  0  0  0  0  0  0  0
   17.1770   42.8020   53.4090 H   0  0  0  0  0  0  0  0  0  0  0  0
   16.2140   41.3350   51.7050 H   0  0  0  0  0  0  0  0  0  0  0  0
   18.9290   43.8660   54.2380 H   0  0  0  0  0  0  0  0  0  0  0  0
   24.1180   43.3450   53.1390 H   0  0  0  0  0  0  0  0  0  0  0  0
   20.2270   45.0440   55.6070 H   0  0  0  0  0  0  0  0  0  0  0  0
   24.5700   46.4910   55.8100 H   0  0  0  0  0  0  0  0  0  0  0  0
   23.5100   48.3600   59.5180 H   0  0  0  0  0  0  0  0  0  0  0  0
   21.3520   47.1330   59.5150 H   0  0  0  0  0  0  0  0  0  0  0  0
   20.7920   45.5800   57.6750 H   0  0  0  0  0  0  0  0  0  0  0  0
   27.4940   48.2510   58.1260 H   0  0  0  0  0  0  0  0  0  0  0  0
   26.5170   47.0310   58.9220 H   0  0  0  0  0  0  0  0  0  0  0  0
  1  2  1  0  0  0  0
  2  4  1  0  0  0  0
  2  3  1  0  0  0  0
  5  2  1  0  0  0  0
  5  6  1  0  0  0  0
  6 11  1  0  0  0  0
  7  6  2  0  0  0  0
  7  8  1  0  0  0  0
  8  9  2  0  0  0  0
  9 12  1  0  0  0  0
 10  9  1  0  0  0  0
 10 30  1  0  0  0  0
 11 31  1  0  0  0  0
 11 10  2  0  0  0  0
 12 13  1  0  0  0  0
 12 32  1  0  0  0  0
 13 18  2  0  0  0  0
 14 15  2  0  0  0  0
 14 13  1  0  0  0  0
 15 16  1  0  0  0  0
 16 17  2  0  0  0  0
 17 19  1  0  0  0  0
 18 17  1  0  0  0  0
 18 34  1  0  0  0  0
 19 20  2  0  0  0  0
 19 24  1  0  0  0  0
 20 21  1  0  0  0  0
 21 22  2  0  0  0  0
 22 36  1  0  0  0  0
 23 22  1  0  0  0  0
 23 37  1  0  0  0  0
 24 38  1  0  0  0  0
 24 23  2  0  0  0  0
 25 21  1  0  0  0  0
 25 27  1  0  0  0  0
 26 25  2  0  0  0  0
 27 40  1  0  0  0  0
 28  7  1  0  0  0  0
 29  8  1  0  0  0  0
 33 15  1  0  0  0  0
 35 20  1  0  0  0  0
 39 27  1  0  0  0  0
M  END
$$$$
