3ebp_ligand_rnum.pdb
 OpenBabel02151809393D

 49 52  0  0  1  0  0  0  0  0999 V2000
   43.6640   39.9960   27.9080 C   0  0  0  0  0  0  0  0  0  0  0  0
   42.6920   39.6050   28.9430 N   0  3  1  0  0  0  0  0  0  0  0  0
   41.3320   39.6430   28.3560 C   0  0  0  0  0  0  0  0  0  0  0  0
   40.2750   39.2770   29.4140 C   0  0  0  0  0  0  0  0  0  0  0  0
   40.6090   37.9170   30.0470 C   0  0  1  0  0  0  0  0  0  0  0  0
   42.0680   37.8680   30.5630 C   0  0  1  0  0  0  0  0  0  0  0  0
   43.0340   38.2510   29.4370 C   0  0  0  0  0  0  0  0  0  0  0  0
   39.5420   37.4920   31.1020 C   0  0  0  0  0  0  0  0  0  0  0  0
   38.7280   36.3900   30.7900 C   0  0  0  0  0  0  0  0  0  0  0  0
   38.9310   35.7490   29.5910 O   0  0  0  0  0  0  0  0  0  0  0  0
   38.1810   34.6440   29.2800 C   0  0  0  0  0  0  0  0  0  0  0  0
   37.1960   34.1910   30.1560 C   0  0  0  0  0  0  0  0  0  0  0  0
   36.9570   34.8520   31.3570 C   0  0  0  0  0  0  0  0  0  0  0  0
   36.0800   34.4380   32.1180 O   0  0  0  0  0  0  0  0  0  0  0  0
   37.7360   35.9640   31.6850 C   0  0  0  0  0  0  0  0  0  0  0  0
   37.5740   36.6230   32.9090 C   0  0  0  0  0  0  0  0  0  0  0  0
   36.6350   36.2280   33.8150 O   0  0  0  0  0  0  0  0  0  0  0  0
   38.3740   37.7130   33.2180 C   0  0  0  0  0  0  0  0  0  0  0  0
   39.3480   38.1540   32.3240 C   0  0  0  0  0  0  0  0  0  0  0  0
   40.0930   39.2270   32.6980 O   0  0  0  0  0  0  0  0  0  0  0  0
   38.4210   33.9460   28.0870 C   0  0  0  0  0  0  0  0  0  0  0  0
   38.8300   34.5770   26.8980 C   0  0  0  0  0  0  0  0  0  0  0  0
   39.0450   36.2890   26.7970 Cl  0  0  0  0  0  0  0  0  0  0  0  0
   39.0690   33.8290   25.7450 C   0  0  0  0  0  0  0  0  0  0  0  0
   38.9080   32.4450   25.7710 C   0  0  0  0  0  0  0  0  0  0  0  0
   38.5120   31.8100   26.9480 C   0  0  0  0  0  0  0  0  0  0  0  0
   38.2740   32.5510   28.0980 C   0  0  0  0  0  0  0  0  0  0  0  0
   42.2540   38.7900   31.6350 O   0  0  0  0  0  0  0  0  0  0  0  0
   44.6760   40.0060   28.3140 H   0  0  0  0  0  0  0  0  0  0  0  0
   43.6470   39.3120   27.0570 H   0  0  0  0  0  0  0  0  0  0  0  0
   43.4530   41.0010   27.5400 H   0  0  0  0  0  0  0  0  0  0  0  0
   42.7390   40.2560   29.7150 H   0  0  0  0  0  0  0  0  0  0  0  0
   41.2660   38.9550   27.5110 H   0  0  0  0  0  0  0  0  0  0  0  0
   41.1220   40.6410   27.9680 H   0  0  0  0  0  0  0  0  0  0  0  0
   39.2880   39.2410   28.9520 H   0  0  0  0  0  0  0  0  0  0  0  0
   40.2320   40.0590   30.1720 H   0  0  0  0  0  0  0  0  0  0  0  0
   40.5990   37.2110   29.2200 H   0  0  0  0  0  0  0  0  0  0  0  0
   42.3020   36.8680   30.9250 H   0  0  0  0  0  0  0  0  0  0  0  0
   44.0600   38.2350   29.8080 H   0  0  0  0  0  0  0  0  0  0  0  0
   42.9790   37.5230   28.6250 H   0  0  0  0  0  0  0  0  0  0  0  0
   36.5710   33.3390   29.9320 H   0  0  0  0  0  0  0  0  0  0  0  0
   36.1800   35.4470   33.5270 H   0  0  0  0  0  0  0  0  0  0  0  0
   38.2440   38.2210   34.1620 H   0  0  0  0  0  0  0  0  0  0  0  0
   40.9270   39.2470   32.2370 H   0  0  0  0  0  0  0  0  0  0  0  0
   39.3820   34.3180   24.8340 H   0  0  0  0  0  0  0  0  0  0  0  0
   39.1230   31.8860   24.8750 H   0  0  0  0  0  0  0  0  0  0  0  0
   38.4050   30.7360   26.9760 H   0  0  0  0  0  0  0  0  0  0  0  0
   37.9960   32.0190   28.9930 H   0  0  0  0  0  0  0  0  0  0  0  0
   43.1050   38.6360   32.0210 H   0  0  0  0  0  0  0  0  0  0  0  0
  1 29  1  0  0  0  0
  1  2  1  0  0  0  0
  2  7  1  0  0  0  0
  2 32  1  1  0  0  0
  3  2  1  0  0  0  0
  3  4  1  0  0  0  0
  4  5  1  0  0  0  0
  4 36  1  0  0  0  0
  5  6  1  1  0  0  0
  5  8  1  0  0  0  0
  6 38  1  1  0  0  0
  6 28  1  0  0  0  0
  7 39  1  0  0  0  0
  7  6  1  0  0  0  0
  8 19  1  0  0  0  0
  9  8  2  0  0  0  0
  9 15  1  0  0  0  0
 10  9  1  0  0  0  0
 11 10  1  0  0  0  0
 11 12  2  0  0  0  0
 12 13  1  0  0  0  0
 13 15  1  0  0  0  0
 13 14  2  0  0  0  0
 15 16  2  0  0  0  0
 16 18  1  0  0  0  0
 16 17  1  0  0  0  0
 18 43  1  0  0  0  0
 19 20  1  0  0  0  0
 19 18  2  0  0  0  0
 21 27  1  0  0  0  0
 21 11  1  0  0  0  0
 22 21  2  0  0  0  0
 23 22  1  0  0  0  0
 24 25  2  0  0  0  0
 24 22  1  0  0  0  0
 25 26  1  0  0  0  0
 26 47  1  0  0  0  0
 26 27  2  0  0  0  0
 27 48  1  0  0  0  0
 28 49  1  0  0  0  0
 30  1  1  0  0  0  0
 31  1  1  0  0  0  0
 33  3  1  0  0  0  0
 34  3  1  0  0  0  0
 35  4  1  0  0  0  0
 37  5  1  0  0  0  0
 40  7  1  0  0  0  0
 41 12  1  0  0  0  0
 42 17  1  0  0  0  0
 44 20  1  0  0  0  0
 45 24  1  0  0  0  0
 46 25  1  0  0  0  0
M  CHG  1   2   1
M  END
$$$$
