2cbj_ligand_rnum.pdb
 OpenBabel02151809393D

 44 45  0  0  1  0  0  0  0  0999 V2000
   36.3610   41.1260   22.3470 C   0  0  0  0  0  0  0  0  0  0  0  0
   34.8320   41.1180   22.1590 C   0  0  0  0  0  0  0  0  0  0  0  0
   34.1590   40.1370   22.4990 O   0  0  0  0  0  0  0  0  0  0  0  0
   34.3300   42.2390   21.6190 N   0  0  0  0  0  0  0  0  0  0  0  0
   32.8900   42.4920   21.4040 C   0  0  2  0  0  0  0  0  0  0  0  0
   32.2170   42.7650   22.7850 C   0  0  1  0  0  0  0  0  0  0  0  0
   32.2670   44.1500   23.1080 O   0  0  0  0  0  0  0  0  0  0  0  0
   30.7780   42.2830   22.8100 C   0  0  2  0  0  0  0  0  0  0  0  0
   30.1620   42.6060   24.0510 O   0  0  0  0  0  0  0  0  0  0  0  0
   30.7730   40.7580   22.5960 C   0  0  1  0  0  0  0  0  0  0  0  0
   29.4330   39.9750   22.7330 C   0  0  0  0  0  0  0  0  0  0  0  0
   28.3700   40.6860   22.0980 O   0  0  0  0  0  0  0  0  0  0  0  0
   31.3210   40.4870   21.2800 O   0  0  0  0  0  0  0  0  0  0  0  0
   32.1910   41.3470   20.6590 C   0  0  0  0  0  0  0  0  0  0  0  0
   32.4020   41.1960   19.3420 N   0  0  0  0  0  0  0  0  0  0  0  0
   31.8010   40.2090   18.5730 O   0  0  0  0  0  0  0  0  0  0  0  0
   31.1530   40.6970   17.4770 C   0  0  0  0  0  0  0  0  0  0  0  0
   31.5130   41.7790   16.9930 O   0  0  0  0  0  0  0  0  0  0  0  0
   30.1400   39.9400   16.9710 N   0  0  0  0  0  0  0  0  0  0  0  0
   29.3650   40.2860   15.8890 C   0  0  0  0  0  0  0  0  0  0  0  0
   29.8740   40.9900   14.7690 C   0  0  0  0  0  0  0  0  0  0  0  0
   29.0530   41.3450   13.6810 C   0  0  0  0  0  0  0  0  0  0  0  0
   27.7010   41.0000   13.6980 C   0  0  0  0  0  0  0  0  0  0  0  0
   27.1720   40.2930   14.7890 C   0  0  0  0  0  0  0  0  0  0  0  0
   28.0010   39.9390   15.8650 C   0  0  0  0  0  0  0  0  0  0  0  0
   36.8670   41.1870   21.3850 H   0  0  0  0  0  0  0  0  0  0  0  0
   36.6660   41.9860   22.9430 H   0  0  0  0  0  0  0  0  0  0  0  0
   36.6960   40.2240   22.8580 H   0  0  0  0  0  0  0  0  0  0  0  0
   34.9650   42.9970   21.3850 H   0  0  0  0  0  0  0  0  0  0  0  0
   32.7870   43.4020   20.8260 H   0  0  0  0  0  0  0  0  0  0  0  0
   32.7490   42.2490   23.5860 H   0  0  0  0  0  0  0  0  0  0  0  0
   31.8510   44.2810   23.9490 H   0  0  0  0  0  0  0  0  0  0  0  0
   30.1980   42.7830   22.0320 H   0  0  0  0  0  0  0  0  0  0  0  0
   29.2530   42.8650   23.9010 H   0  0  0  0  0  0  0  0  0  0  0  0
   31.4640   40.3090   23.3080 H   0  0  0  0  0  0  0  0  0  0  0  0
   29.1730   39.8580   23.7860 H   0  0  0  0  0  0  0  0  0  0  0  0
   29.5240   38.9730   22.3140 H   0  0  0  0  0  0  0  0  0  0  0  0
   27.8250   41.1180   22.7570 H   0  0  0  0  0  0  0  0  0  0  0  0
   29.8700   39.1370   17.5200 H   0  0  0  0  0  0  0  0  0  0  0  0
   30.9190   41.2530   14.7050 H   0  0  0  0  0  0  0  0  0  0  0  0
   29.4680   41.8780   12.8390 H   0  0  0  0  0  0  0  0  0  0  0  0
   27.0640   41.2710   12.8690 H   0  0  0  0  0  0  0  0  0  0  0  0
   26.1270   40.0220   14.8010 H   0  0  0  0  0  0  0  0  0  0  0  0
   27.5710   39.4080   16.6950 H   0  0  0  0  0  0  0  0  0  0  0  0
  1 28  1  0  0  0  0
  1 27  1  0  0  0  0
  2  1  1  0  0  0  0
  2  3  2  0  0  0  0
  4  2  1  0  0  0  0
  5  4  1  0  0  0  0
  5  6  1  1  0  0  0
  6  8  1  6  0  0  0
  6  7  1  0  0  0  0
  6 31  1  0  0  0  0
  7 32  1  0  0  0  0
  8 10  1  6  0  0  0
  8  9  1  0  0  0  0
 10 11  1  0  0  0  0
 10 35  1  1  0  0  0
 11 36  1  0  0  0  0
 12 11  1  0  0  0  0
 12 38  1  0  0  0  0
 13 10  1  0  0  0  0
 14 13  1  0  0  0  0
 14  5  1  0  0  0  0
 15 14  2  0  0  0  0
 16 15  1  0  0  0  0
 17 16  1  0  0  0  0
 18 17  2  0  0  0  0
 19 17  1  0  0  0  0
 19 39  1  0  0  0  0
 20 19  1  0  0  0  0
 21 20  2  0  0  0  0
 22 23  2  0  0  0  0
 22 21  1  0  0  0  0
 23 24  1  0  0  0  0
 24 43  1  0  0  0  0
 24 25  2  0  0  0  0
 25 20  1  0  0  0  0
 25 44  1  0  0  0  0
 26  1  1  0  0  0  0
 29  4  1  0  0  0  0
 30  5  1  0  0  0  0
 33  8  1  0  0  0  0
 34  9  1  0  0  0  0
 37 11  1  0  0  0  0
 40 21  1  0  0  0  0
 41 22  1  0  0  0  0
 42 23  1  0  0  0  0
M  END
$$$$
