3ag9_ligand_rnum.pdb
 OpenBabel02151809393D

140142  0  0  1  0  0  0  0  0999 V2000
    8.1330    4.1030   17.1980 N   0  0  0  0  0  0  0  0  0  0  0  0
    7.3260    4.7630   16.3560 C   0  0  0  0  0  0  0  0  0  0  0  0
    7.7330    5.1070   15.1410 N   0  0  0  0  0  0  0  0  0  0  0  0
    8.9690    4.7920   14.7230 C   0  0  0  0  0  0  0  0  0  0  0  0
    9.8310    4.1170   15.5770 C   0  0  0  0  0  0  0  0  0  0  0  0
    9.3850    3.7730   16.8420 C   0  0  1  0  0  0  0  0  0  0  0  0
   10.1900    3.1300   17.6810 N   0  0  0  0  0  0  0  0  0  0  0  0
   10.9870    3.9300   14.9430 N   0  0  0  0  0  0  0  0  0  0  0  0
   10.8470    4.4670   13.7260 C   0  0  0  0  0  0  0  0  0  0  0  0
    9.6260    5.0080   13.5880 N   0  0  0  0  0  0  0  0  0  0  0  0
   11.5190    4.3030   10.5370 O   0  0  0  0  0  0  0  0  0  0  0  0
    8.3910    7.5990   10.2280 O   0  0  0  0  0  0  0  0  0  0  0  0
    9.7350    8.0680   12.4790 O   0  0  0  0  0  0  0  0  0  0  0  0
    8.9100    4.8170   11.2340 O   0  0  0  0  0  0  0  0  0  0  0  0
   10.8260    4.8240    9.6510 C   0  0  0  0  0  0  0  0  0  0  0  0
    9.6510    6.9150   10.3730 C   0  0  1  0  0  0  0  0  0  0  0  0
   10.0240    6.8320   11.8420 C   0  0  2  0  0  0  0  0  0  0  0  0
    9.4640    5.4380   10.0260 C   0  0  2  0  0  0  0  0  0  0  0  0
    9.0810    5.7280   12.3590 C   0  0  2  0  0  0  0  0  0  0  0  0
   16.3250    1.5850    5.8220 C   0  0  0  0  0  0  0  0  0  0  0  0
   15.9480    1.3040    4.6780 O   0  0  0  0  0  0  0  0  0  0  0  0
   15.7840    0.8100    7.0410 C   0  0  0  0  0  0  0  0  0  0  0  0
   14.2840    1.0790    7.2730 C   0  0  0  0  0  0  0  0  0  0  0  0
   13.9760    2.5800    7.2340 C   0  0  0  0  0  0  0  0  0  0  0  0
   12.5930    2.9190    7.7970 C   0  0  0  0  0  0  0  0  0  0  0  0
   12.4690    4.4440    7.8270 C   0  0  0  0  0  0  0  0  0  0  0  0
   11.1750    4.8980    8.3660 N   0  0  0  0  0  0  0  0  0  0  0  0
   17.1720    2.5850    6.1140 N   0  0  0  0  0  0  0  0  0  0  0  0
   17.7880    3.4240    5.0540 C   0  0  1  0  0  0  0  0  0  0  0  0
   16.7230    4.3270    4.3850 C   0  0  0  0  0  0  0  0  0  0  0  0
   15.7310    4.6850    5.0080 O   0  0  0  0  0  0  0  0  0  0  0  0
   19.0060    4.2140    5.5840 C   0  0  0  0  0  0  0  0  0  0  0  0
   18.6760    5.3540    6.5530 C   0  0  0  0  0  0  0  0  0  0  0  0
   19.9630    6.1100    6.9450 C   0  0  0  0  0  0  0  0  0  0  0  0
   19.8140    6.7850    8.3170 C   0  0  0  0  0  0  0  0  0  0  0  0
   20.2100    8.2020    8.2270 N   0  3  0  0  0  0  0  0  0  0  0  0
   16.3330   11.1550    1.4080 C   0  0  0  0  0  0  0  0  0  0  0  0
   17.5310   11.4240    1.2740 O   0  0  0  0  0  0  0  0  0  0  0  0
   15.6390   10.1580    0.4650 C   0  0  0  0  0  0  0  0  0  0  0  0
   16.3530    8.7960    0.4520 C   0  0  0  0  0  0  0  0  0  0  0  0
   15.6320    7.7690    1.3310 C   0  0  0  0  0  0  0  0  0  0  0  0
   16.6190    6.8800    2.0970 C   0  0  0  0  0  0  0  0  0  0  0  0
   16.0230    5.4860    2.3230 C   0  0  0  0  0  0  0  0  0  0  0  0
   16.9520    4.6450    3.1120 N   0  0  0  0  0  0  0  0  0  0  0  0
   15.5410   11.6900    2.3450 N   0  0  0  0  0  0  0  0  0  0  0  0
   16.0220   12.6680    3.3520 C   0  0  2  0  0  0  0  0  0  0  0  0
   14.9850   12.8640    4.4900 C   0  0  0  0  0  0  0  0  0  0  0  0
   13.5280   12.5910    4.0780 C   0  0  0  0  0  0  0  0  0  0  0  0
   12.9210   13.7540    3.2770 C   0  0  0  0  0  0  0  0  0  0  0  0
   12.7560   13.3160    1.8780 N   0  0  0  0  0  0  0  0  0  0  0  0
   12.4380   14.1360    0.8670 C   0  0  0  0  0  0  0  0  0  0  0  0
   12.2550   15.4440    1.0400 N   0  3  0  0  0  0  0  0  0  0  0  0
   12.3120   13.6200   -0.3520 N   0  0  0  0  0  0  0  0  0  0  0  0
   16.3700   14.0160    2.6750 C   0  0  0  0  0  0  0  0  0  0  0  0
   16.2800   14.1540    1.4550 O   0  0  0  0  0  0  0  0  0  0  0  0
   16.7690   14.9850    3.5020 N   0  0  0  0  0  0  0  0  0  0  0  0
   17.1480   16.3410    3.0460 C   0  0  2  0  0  0  0  0  0  0  0  0
   17.8410   17.0950    4.1880 C   0  0  0  0  0  0  0  0  0  0  0  0
   17.0880   16.9250    5.5090 C   0  0  0  0  0  0  0  0  0  0  0  0
   18.0520   16.7450    6.6770 C   0  0  0  0  0  0  0  0  0  0  0  0
   18.3430   18.0710    7.2130 N   0  0  0  0  0  0  0  0  0  0  0  0
   17.8120   18.5840    8.3220 C   0  0  0  0  0  0  0  0  0  0  0  0
   16.9670   17.9090    9.1010 N   0  3  0  0  0  0  0  0  0  0  0  0
   18.1780   19.8160    8.6480 N   0  0  0  0  0  0  0  0  0  0  0  0
   15.9170   17.1400    2.5600 C   0  0  0  0  0  0  0  0  0  0  0  0
   14.8180   17.0370    3.1090 O   0  0  0  0  0  0  0  0  0  0  0  0
   16.1500   17.9510    1.5300 N   0  0  0  0  0  0  0  0  0  0  0  0
    6.3190    5.0020   16.6540 H   0  0  0  0  0  0  0  0  0  0  0  0
   11.1330    2.9090   17.3950 H   0  0  0  0  0  0  0  0  0  0  0  0
    9.8570    2.8550   18.5970 H   0  0  0  0  0  0  0  0  0  0  0  0
   11.6350    4.4760   12.9920 H   0  0  0  0  0  0  0  0  0  0  0  0
    8.4620    8.4400   10.6560 H   0  0  0  0  0  0  0  0  0  0  0  0
   10.3250    8.7280   12.1460 H   0  0  0  0  0  0  0  0  0  0  0  0
   10.4110    7.4240    9.7770 H   0  0  0  0  0  0  0  0  0  0  0  0
   11.0700    6.5560   11.9770 H   0  0  0  0  0  0  0  0  0  0  0  0
    8.7570    5.3540    9.2160 H   0  0  0  0  0  0  0  0  0  0  0  0
    8.1000    6.1090   12.6480 H   0  0  0  0  0  0  0  0  0  0  0  0
   16.3520    1.0780    7.9330 H   0  0  0  0  0  0  0  0  0  0  0  0
   15.9490   -0.2550    6.8780 H   0  0  0  0  0  0  0  0  0  0  0  0
   13.9840    0.6490    8.2290 H   0  0  0  0  0  0  0  0  0  0  0  0
   13.6940    0.5840    6.5080 H   0  0  0  0  0  0  0  0  0  0  0  0
   14.0560    2.9880    6.2320 H   0  0  0  0  0  0  0  0  0  0  0  0
   14.7250    3.1010    7.8330 H   0  0  0  0  0  0  0  0  0  0  0  0
   12.5010    2.5140    8.8020 H   0  0  0  0  0  0  0  0  0  0  0  0
   11.8060    2.4730    7.1870 H   0  0  0  0  0  0  0  0  0  0  0  0
   12.5680    4.8450    6.8170 H   0  0  0  0  0  0  0  0  0  0  0  0
   13.2740    4.8860    8.4180 H   0  0  0  0  0  0  0  0  0  0  0  0
   10.5360    5.3380    7.7190 H   0  0  0  0  0  0  0  0  0  0  0  0
   17.4100    2.7760    7.0760 H   0  0  0  0  0  0  0  0  0  0  0  0
   18.1580    2.7480    4.2820 H   0  0  0  0  0  0  0  0  0  0  0  0
   19.5440    4.6290    4.7300 H   0  0  0  0  0  0  0  0  0  0  0  0
   19.7000    3.5190    6.0590 H   0  0  0  0  0  0  0  0  0  0  0  0
   18.2060    4.9210    7.4380 H   0  0  0  0  0  0  0  0  0  0  0  0
   17.9600    6.0600    6.1320 H   0  0  0  0  0  0  0  0  0  0  0  0
   20.2130    6.8250    6.1590 H   0  0  0  0  0  0  0  0  0  0  0  0
   20.8060    5.4200    6.9990 H   0  0  0  0  0  0  0  0  0  0  0  0
   20.4230    6.2800    9.0690 H   0  0  0  0  0  0  0  0  0  0  0  0
   18.7830    6.7610    8.6700 H   0  0  0  0  0  0  0  0  0  0  0  0
   20.1760    8.6020    9.1590 H   0  0  0  0  0  0  0  0  0  0  0  0
   21.1600    8.2580    7.8900 H   0  0  0  0  0  0  0  0  0  0  0  0
   19.5900    8.6890    7.5990 H   0  0  0  0  0  0  0  0  0  0  0  0
   15.6930   10.5920   -0.5340 H   0  0  0  0  0  0  0  0  0  0  0  0
   14.5750   10.0600    0.6880 H   0  0  0  0  0  0  0  0  0  0  0  0
   17.3950    8.9030    0.7570 H   0  0  0  0  0  0  0  0  0  0  0  0
   16.3970    8.4160   -0.5690 H   0  0  0  0  0  0  0  0  0  0  0  0
   14.9770    7.1710    0.6950 H   0  0  0  0  0  0  0  0  0  0  0  0
   14.9800    8.2540    2.0590 H   0  0  0  0  0  0  0  0  0  0  0  0
   16.8880    7.3510    3.0440 H   0  0  0  0  0  0  0  0  0  0  0  0
   17.5450    6.7610    1.5320 H   0  0  0  0  0  0  0  0  0  0  0  0
   15.8600    4.9920    1.3650 H   0  0  0  0  0  0  0  0  0  0  0  0
   15.0400    5.5650    2.7920 H   0  0  0  0  0  0  0  0  0  0  0  0
   17.7780    4.2870    2.6540 H   0  0  0  0  0  0  0  0  0  0  0  0
   14.5760   11.4050    2.3890 H   0  0  0  0  0  0  0  0  0  0  0  0
   16.9470   12.2910    3.7930 H   0  0  0  0  0  0  0  0  0  0  0  0
   15.0650   13.8260    4.9970 H   0  0  0  0  0  0  0  0  0  0  0  0
   15.2290   12.1350    5.2640 H   0  0  0  0  0  0  0  0  0  0  0  0
   12.9510   12.5090    5.0000 H   0  0  0  0  0  0  0  0  0  0  0  0
   13.3860   11.6220    3.5990 H   0  0  0  0  0  0  0  0  0  0  0  0
   13.5340   14.6530    3.3340 H   0  0  0  0  0  0  0  0  0  0  0  0
   11.9360   14.0110    3.6690 H   0  0  0  0  0  0  0  0  0  0  0  0
   12.8320   12.3270    1.6970 H   0  0  0  0  0  0  0  0  0  0  0  0
   12.3770   15.8520    1.9560 H   0  0  0  0  0  0  0  0  0  0  0  0
   12.0230   16.0420    0.2590 H   0  0  0  0  0  0  0  0  0  0  0  0
   12.0690   14.2100   -1.1340 H   0  0  0  0  0  0  0  0  0  0  0  0
   12.4590   12.6330   -0.5090 H   0  0  0  0  0  0  0  0  0  0  0  0
   16.8140   14.7950    4.4920 H   0  0  0  0  0  0  0  0  0  0  0  0
   17.8530   16.2450    2.2170 H   0  0  0  0  0  0  0  0  0  0  0  0
   17.9690   18.1540    3.9550 H   0  0  0  0  0  0  0  0  0  0  0  0
   18.8540   16.6960    4.2430 H   0  0  0  0  0  0  0  0  0  0  0  0
   16.3820   16.1000    5.5580 H   0  0  0  0  0  0  0  0  0  0  0  0
   16.4540   17.8010    5.6610 H   0  0  0  0  0  0  0  0  0  0  0  0
   18.9920   16.3720    6.2890 H   0  0  0  0  0  0  0  0  0  0  0  0
   17.8650   16.0400    7.4580 H   0  0  0  0  0  0  0  0  0  0  0  0
   18.9830   18.6340    6.6700 H   0  0  0  0  0  0  0  0  0  0  0  0
   16.6040   18.3360    9.9410 H   0  0  0  0  0  0  0  0  0  0  0  0
   16.7010   16.9530    8.8810 H   0  0  0  0  0  0  0  0  0  0  0  0
   17.7730   20.2670    9.4680 H   0  0  0  0  0  0  0  0  0  0  0  0
   18.8340   20.3300    8.0800 H   0  0  0  0  0  0  0  0  0  0  0  0
   15.4010   18.5170    1.1600 H   0  0  0  0  0  0  0  0  0  0  0  0
   17.0740   18.0020    1.1250 H   0  0  0  0  0  0  0  0  0  0  0  0
  2 68  1  0  0  0  0
  2  1  2  0  0  0  0
  3  2  1  0  0  0  0
  4  3  1  0  0  0  0
  4  5  2  0  0  0  0
  5  6  1  0  0  0  0
  6  1  1  0  0  0  0
  6  7  1  1  0  0  0
  7 70  1  0  0  0  0
  8  5  1  0  0  0  0
  9  8  2  0  0  0  0
 10  9  1  0  0  0  0
 10  4  1  0  0  0  0
 12 16  1  0  0  0  0
 12 72  1  0  0  0  0
 14 19  1  0  0  0  0
 15 18  1  0  0  0  0
 15 11  2  0  0  0  0
 16 18  1  6  0  0  0
 17 16  1  6  0  0  0
 17 75  1  0  0  0  0
 17 13  1  0  0  0  0
 18 76  1  6  0  0  0
 18 14  1  0  0  0  0
 19 17  1  6  0  0  0
 19 77  1  0  0  0  0
 19 10  1  0  0  0  0
 20 28  1  0  0  0  0
 20 22  1  0  0  0  0
 21 20  2  0  0  0  0
 22 23  1  0  0  0  0
 22 78  1  0  0  0  0
 23 80  1  0  0  0  0
 24 23  1  0  0  0  0
 24 25  1  0  0  0  0
 24 83  1  0  0  0  0
 25 26  1  0  0  0  0
 25 84  1  0  0  0  0
 26 27  1  0  0  0  0
 26 87  1  0  0  0  0
 27 15  1  0  0  0  0
 28 89  1  0  0  0  0
 29 90  1  6  0  0  0
 29 32  1  0  0  0  0
 29 28  1  0  0  0  0
 30 31  2  0  0  0  0
 30 29  1  0  0  0  0
 32 92  1  0  0  0  0
 32 33  1  0  0  0  0
 33 34  1  0  0  0  0
 33 93  1  0  0  0  0
 34 96  1  0  0  0  0
 34 35  1  0  0  0  0
 35 98  1  0  0  0  0
 35 97  1  0  0  0  0
 36 35  1  0  0  0  0
 36 99  1  0  0  0  0
 37 45  1  0  0  0  0
 38 37  2  0  0  0  0
 39103  1  0  0  0  0
 39 37  1  0  0  0  0
 40 39  1  0  0  0  0
 40104  1  0  0  0  0
 40 41  1  0  0  0  0
 41107  1  0  0  0  0
 41 42  1  0  0  0  0
 42 43  1  0  0  0  0
 42108  1  0  0  0  0
 43111  1  0  0  0  0
 43 44  1  0  0  0  0
 44 30  1  0  0  0  0
 45113  1  0  0  0  0
 45 46  1  0  0  0  0
 46114  1  1  0  0  0
 46 47  1  0  0  0  0
 47115  1  0  0  0  0
 47116  1  0  0  0  0
 48 47  1  0  0  0  0
 48117  1  0  0  0  0
 49119  1  0  0  0  0
 49120  1  0  0  0  0
 49 48  1  0  0  0  0
 50 49  1  0  0  0  0
 51 52  1  0  0  0  0
 51 50  1  0  0  0  0
 52122  1  0  0  0  0
 53 51  2  0  0  0  0
 54 46  1  0  0  0  0
 54 56  1  0  0  0  0
 55 54  2  0  0  0  0
 56126  1  0  0  0  0
 57127  1  6  0  0  0
 57 56  1  0  0  0  0
 57 58  1  0  0  0  0
 58129  1  0  0  0  0
 58 59  1  0  0  0  0
 59130  1  0  0  0  0
 59131  1  0  0  0  0
 59 60  1  0  0  0  0
 60 61  1  0  0  0  0
 60133  1  0  0  0  0
 61 62  1  0  0  0  0
 62 64  2  0  0  0  0
 62 63  1  0  0  0  0
 63135  1  0  0  0  0
 64137  1  0  0  0  0
 65 57  1  0  0  0  0
 65 66  2  0  0  0  0
 67 65  1  0  0  0  0
 69  7  1  0  0  0  0
 71  9  1  0  0  0  0
 73 13  1  0  0  0  0
 74 16  1  0  0  0  0
 79 22  1  0  0  0  0
 81 23  1  0  0  0  0
 82 24  1  0  0  0  0
 85 25  1  0  0  0  0
 86 26  1  0  0  0  0
 88 27  1  0  0  0  0
 91 32  1  0  0  0  0
 94 33  1  0  0  0  0
 95 34  1  0  0  0  0
100 36  1  0  0  0  0
101 36  1  0  0  0  0
102 39  1  0  0  0  0
105 40  1  0  0  0  0
106 41  1  0  0  0  0
109 42  1  0  0  0  0
110 43  1  0  0  0  0
112 44  1  0  0  0  0
118 48  1  0  0  0  0
121 50  1  0  0  0  0
123 52  1  0  0  0  0
124 53  1  0  0  0  0
125 53  1  0  0  0  0
128 58  1  0  0  0  0
132 60  1  0  0  0  0
134 61  1  0  0  0  0
136 63  1  0  0  0  0
138 64  1  0  0  0  0
139 67  1  0  0  0  0
140 67  1  0  0  0  0
M  CHG  3  36   1  52   1  63   1
M  END
$$$$
