1z95_ligand_rnum.pdb
 OpenBabel02151809393D

 43 44  0  0  1  0  0  0  0  0999 V2000
   29.1850    1.4670    9.0150 C   0  0  0  0  0  0  0  0  0  0  0  0
   28.7480    1.3070   10.3270 C   0  0  0  0  0  0  0  0  0  0  0  0
   29.5430    0.6260   11.2440 C   0  0  0  0  0  0  0  0  0  0  0  0
   29.1270    0.4660   12.5160 F   0  0  0  0  0  0  0  0  0  0  0  0
   30.7730    0.1070   10.8520 C   0  0  0  0  0  0  0  0  0  0  0  0
   31.2100    0.2690    9.5410 C   0  0  0  0  0  0  0  0  0  0  0  0
   30.4160    0.9480    8.6230 C   0  0  0  0  0  0  0  0  0  0  0  0
   30.9610    1.1230    6.9710 S   0  0  0  0  0  0  0  0  0  0  0  0
   30.5010    2.4500    6.4430 O   0  0  0  0  0  0  0  0  0  0  0  0
   32.4580    1.0530    6.9270 O   0  0  0  0  0  0  0  0  0  0  0  0
   30.2570   -0.2330    5.9620 C   0  0  0  0  0  0  0  0  0  0  0  0
   29.6810    0.2030    4.6120 C   0  0  1  0  0  0  0  0  0  0  0  0
   30.6660    0.9590    3.9030 O   0  0  0  0  0  0  0  0  0  0  0  0
   29.2760   -1.0210    3.7880 C   0  0  0  0  0  0  0  0  0  0  0  0
   28.4490    1.0870    4.8230 C   0  0  0  0  0  0  0  0  0  0  0  0
   27.4440    0.6410    5.3760 O   0  0  0  0  0  0  0  0  0  0  0  0
   28.6250    2.3570    4.4660 N   0  0  0  0  0  0  0  0  0  0  0  0
   27.7060    3.3220    4.5180 C   0  0  0  0  0  0  0  0  0  0  0  0
   26.3660    3.0880    4.8190 C   0  0  0  0  0  0  0  0  0  0  0  0
   28.0950    4.6030    4.1420 C   0  0  0  0  0  0  0  0  0  0  0  0
   27.1500    5.6220    4.0830 C   0  0  0  0  0  0  0  0  0  0  0  0
   25.8150    5.3730    4.3880 C   0  0  0  0  0  0  0  0  0  0  0  0
   24.9330    6.4990    4.3240 C   0  0  0  0  0  0  0  0  0  0  0  0
   24.2430    7.4020    4.2630 N   0  0  0  0  0  0  0  0  0  0  0  0
   25.3950    4.0900    4.7550 C   0  0  0  0  0  0  0  0  0  0  0  0
   23.9310    3.7310    5.0750 C   0  0  0  0  0  0  0  0  0  0  0  0
   23.7140    3.8720    6.3790 F   0  0  0  0  0  0  0  0  0  0  0  0
   23.0300    4.4730    4.4370 F   0  0  0  0  0  0  0  0  0  0  0  0
   23.6400    2.4740    4.7490 F   0  0  0  0  0  0  0  0  0  0  0  0
   28.5570    1.9510    8.2840 H   0  0  0  0  0  0  0  0  0  0  0  0
   27.7920    1.7060   10.6290 H   0  0  0  0  0  0  0  0  0  0  0  0
   31.3920   -0.4140   11.5670 H   0  0  0  0  0  0  0  0  0  0  0  0
   32.1750   -0.1040    9.2490 H   0  0  0  0  0  0  0  0  0  0  0  0
   29.4830   -0.7060    6.5620 H   0  0  0  0  0  0  0  0  0  0  0  0
   31.0450   -0.9720    5.8250 H   0  0  0  0  0  0  0  0  0  0  0  0
   31.4310    0.4160    3.7430 H   0  0  0  0  0  0  0  0  0  0  0  0
   28.8570   -0.7330    2.8220 H   0  0  0  0  0  0  0  0  0  0  0  0
   30.1360   -1.6610    3.5880 H   0  0  0  0  0  0  0  0  0  0  0  0
   28.5320   -1.6310    4.3020 H   0  0  0  0  0  0  0  0  0  0  0  0
   29.5440    2.6050    4.1210 H   0  0  0  0  0  0  0  0  0  0  0  0
   25.9310    2.1450    5.0760 H   0  0  0  0  0  0  0  0  0  0  0  0
   29.1130    4.8550    3.9260 H   0  0  0  0  0  0  0  0  0  0  0  0
   27.4700    6.6210    3.8380 H   0  0  0  0  0  0  0  0  0  0  0  0
  1  2  1  0  0  0  0
  2 31  1  0  0  0  0
  2  3  2  0  0  0  0
  3  4  1  0  0  0  0
  5  3  1  0  0  0  0
  5 32  1  0  0  0  0
  6  5  2  0  0  0  0
  7  1  2  0  0  0  0
  7  6  1  0  0  0  0
  8  7  1  0  0  0  0
  9  8  2  0  0  0  0
 10  8  2  0  0  0  0
 11 34  1  0  0  0  0
 11  8  1  0  0  0  0
 12 13  1  6  0  0  0
 12 15  1  0  0  0  0
 12 11  1  0  0  0  0
 14 39  1  0  0  0  0
 14 12  1  0  0  0  0
 15 16  2  0  0  0  0
 17 18  1  0  0  0  0
 17 15  1  0  0  0  0
 18 19  2  0  0  0  0
 19 41  1  0  0  0  0
 20 18  1  0  0  0  0
 21 20  2  0  0  0  0
 21 22  1  0  0  0  0
 22 25  2  0  0  0  0
 23 22  1  0  0  0  0
 24 23  3  0  0  0  0
 25 19  1  0  0  0  0
 25 26  1  0  0  0  0
 26 27  1  0  0  0  0
 28 26  1  0  0  0  0
 29 26  1  0  0  0  0
 30  1  1  0  0  0  0
 33  6  1  0  0  0  0
 35 11  1  0  0  0  0
 36 13  1  0  0  0  0
 37 14  1  0  0  0  0
 38 14  1  0  0  0  0
 40 17  1  0  0  0  0
 42 20  1  0  0  0  0
 43 21  1  0  0  0  0
M  END
$$$$
