2yge_ligand_rnum.pdb
 OpenBabel02151809393D

 82 83  0  0  1  0  0  0  0  0999 V2000
   26.0300  -34.1660   -5.2680 C   0  0  2  0  0  0  0  0  0  0  0  0
   26.0820  -33.8880   -3.7670 C   0  0  0  0  0  0  0  0  0  0  0  0
   25.5010  -32.5830   -3.2040 C   0  0  1  0  0  0  0  0  0  0  0  0
   24.8850  -31.6070   -4.1030 C   0  0  0  0  0  0  0  0  0  0  0  0
   24.8440  -31.8760   -5.6120 C   0  0  0  0  0  0  0  0  0  0  0  0
   25.4150  -33.1840   -6.1650 C   0  0  1  0  0  0  0  0  0  0  0  0
   26.0620  -35.6430   -5.6960 C   0  0  0  0  0  0  0  0  0  0  0  0
   24.5910  -36.0570   -5.5350 C   0  0  1  0  0  0  0  0  0  0  0  0
   23.9870  -36.2980   -6.9260 C   0  0  0  0  0  0  0  0  0  0  0  0
   22.7220  -37.1610   -6.8220 C   0  0  1  0  0  0  0  0  0  0  0  0
   21.6530  -36.6490   -7.8100 C   0  0  1  0  0  0  0  0  0  0  0  0
   21.3060  -35.1790   -7.4850 C   0  0  2  0  0  0  0  0  0  0  0  0
   20.4200  -35.1370   -6.2350 C   0  0  0  0  0  0  0  0  0  0  0  0
   20.4830  -34.0080   -5.3080 C   0  0  0  0  0  0  0  0  0  0  0  0
   19.5580  -34.0120   -4.0960 C   0  0  1  0  0  0  0  0  0  0  0  0
   20.4190  -34.1040   -2.8280 C   0  0  2  0  0  0  0  0  0  0  0  0
   21.0130  -35.5220   -2.7370 C   0  0  0  0  0  0  0  0  0  0  0  0
   22.3230  -35.6760   -2.0870 C   0  0  0  0  0  0  0  0  0  0  0  0
   23.2300  -34.4470   -1.9430 C   0  0  0  0  0  0  0  0  0  0  0  0
   24.5100  -34.6060   -1.2390 C   0  0  1  0  0  0  0  0  0  0  0  0
   25.2120  -33.3270   -0.7890 C   0  0  0  0  0  0  0  0  0  0  0  0
   25.5520  -32.3130   -1.7690 N   0  0  0  0  0  0  0  0  0  0  0  0
   26.5800  -34.7080   -3.0430 O   0  0  0  0  0  0  0  0  0  0  0  0
   24.3510  -31.0890   -6.3640 O   0  0  0  0  0  0  0  0  0  0  0  0
   25.3620  -33.4160   -7.5710 O   0  0  0  0  0  0  0  0  0  0  0  0
   26.2530  -32.4960   -8.2170 C   0  0  0  0  0  0  0  0  0  0  0  0
   24.4860  -37.2570   -4.5780 C   0  0  0  0  0  0  0  0  0  0  0  0
   23.0780  -38.5110   -7.1330 O   0  0  0  0  0  0  0  0  0  0  0  0
   24.0930  -38.5440   -8.1490 C   0  0  0  0  0  0  0  0  0  0  0  0
   22.1550  -36.7280   -9.1450 O   0  0  0  0  0  0  0  0  0  0  0  0
   20.4700  -34.5870   -8.6320 C   0  0  0  0  0  0  0  0  0  0  0  0
   21.4400  -32.8250   -5.5390 C   0  0  0  0  0  0  0  0  0  0  0  0
   18.9090  -32.7520   -4.0990 O   0  0  0  0  0  0  0  0  0  0  0  0
   17.6350  -32.7490   -4.7530 C   0  0  0  0  0  0  0  0  0  0  0  0
   17.2740  -33.6370   -5.4820 O   0  0  0  0  0  0  0  0  0  0  0  0
   16.7830  -31.5840   -4.5260 N   0  0  0  0  0  0  0  0  0  0  0  0
   19.6120  -33.8410   -1.6760 O   0  0  0  0  0  0  0  0  0  0  0  0
   18.3790  -34.5610   -1.7420 C   0  0  0  0  0  0  0  0  0  0  0  0
   24.7810  -35.8790   -0.4210 C   0  0  0  0  0  0  0  0  0  0  0  0
   25.4780  -33.1720    0.3660 O   0  0  0  0  0  0  0  0  0  0  0  0
   24.5180  -30.7000   -3.6620 H   0  0  0  0  0  0  0  0  0  0  0  0
   26.7420  -36.2210   -5.0690 H   0  0  0  0  0  0  0  0  0  0  0  0
   26.4550  -35.7130   -6.7100 H   0  0  0  0  0  0  0  0  0  0  0  0
   23.9780  -35.2880   -5.0580 H   0  0  0  0  0  0  0  0  0  0  0  0
   24.7610  -36.4610   -7.6650 H   0  0  0  0  0  0  0  0  0  0  0  0
   23.8060  -35.2990   -7.2700 H   0  0  0  0  0  0  0  0  0  0  0  0
   22.2440  -37.1290   -5.8470 H   0  0  0  0  0  0  0  0  0  0  0  0
   20.7620  -37.2770   -7.7570 H   0  0  0  0  0  0  0  0  0  0  0  0
   22.1060  -34.4630   -7.3840 H   0  0  0  0  0  0  0  0  0  0  0  0
   19.7260  -35.9480   -6.0720 H   0  0  0  0  0  0  0  0  0  0  0  0
   18.8710  -34.8560   -4.1660 H   0  0  0  0  0  0  0  0  0  0  0  0
   21.1380  -33.2980   -2.8870 H   0  0  0  0  0  0  0  0  0  0  0  0
   21.1600  -35.9550   -3.7240 H   0  0  0  0  0  0  0  0  0  0  0  0
   20.3620  -36.2280   -2.2320 H   0  0  0  0  0  0  0  0  0  0  0  0
   22.6060  -36.6610   -1.7490 H   0  0  0  0  0  0  0  0  0  0  0  0
   22.9980  -33.4560   -2.2910 H   0  0  0  0  0  0  0  0  0  0  0  0
   24.7680  -35.1120   -2.1220 H   0  0  0  0  0  0  0  0  0  0  0  0
   24.2800  -31.5040   -7.2130 H   0  0  0  0  0  0  0  0  0  0  0  0
   26.5800  -32.9330   -9.1600 H   0  0  0  0  0  0  0  0  0  0  0  0
   25.7610  -31.5530   -8.4530 H   0  0  0  0  0  0  0  0  0  0  0  0
   27.1520  -32.2880   -7.6330 H   0  0  0  0  0  0  0  0  0  0  0  0
   23.4780  -37.4440   -4.2140 H   0  0  0  0  0  0  0  0  0  0  0  0
   24.8620  -38.1570   -5.0580 H   0  0  0  0  0  0  0  0  0  0  0  0
   25.0870  -37.0930   -3.6830 H   0  0  0  0  0  0  0  0  0  0  0  0
   24.0260  -39.5470   -8.5690 H   0  0  0  0  0  0  0  0  0  0  0  0
   24.0910  -37.9080   -9.0280 H   0  0  0  0  0  0  0  0  0  0  0  0
   25.0880  -38.5350   -7.6980 H   0  0  0  0  0  0  0  0  0  0  0  0
   22.3230  -37.6380   -9.3380 H   0  0  0  0  0  0  0  0  0  0  0  0
   20.0590  -33.6170   -8.3510 H   0  0  0  0  0  0  0  0  0  0  0  0
   21.0920  -34.4180   -9.5040 H   0  0  0  0  0  0  0  0  0  0  0  0
   19.6390  -35.2350   -8.9100 H   0  0  0  0  0  0  0  0  0  0  0  0
   21.2070  -31.9740   -4.9030 H   0  0  0  0  0  0  0  0  0  0  0  0
   22.4560  -33.1420   -5.3110 H   0  0  0  0  0  0  0  0  0  0  0  0
   21.4000  -32.4750   -6.5700 H   0  0  0  0  0  0  0  0  0  0  0  0
   15.8720  -31.5380   -4.9820 H   0  0  0  0  0  0  0  0  0  0  0  0
   17.1260  -30.8500   -3.9250 H   0  0  0  0  0  0  0  0  0  0  0  0
   17.9720  -34.5730   -0.7310 H   0  0  0  0  0  0  0  0  0  0  0  0
   17.6180  -34.0660   -2.3410 H   0  0  0  0  0  0  0  0  0  0  0  0
   18.4350  -35.6040   -2.0340 H   0  0  0  0  0  0  0  0  0  0  0  0
   25.7720  -35.8530    0.0330 H   0  0  0  0  0  0  0  0  0  0  0  0
   24.0640  -35.9690    0.3950 H   0  0  0  0  0  0  0  0  0  0  0  0
   24.7320  -36.7970   -1.0100 H   0  0  0  0  0  0  0  0  0  0  0  0
  1  2  1  1  0  0  0
  2  3  1  0  0  0  0
  2 23  2  0  0  0  0
  3  4  1  1  0  0  0
  3 22  1  0  0  0  0
  4 41  1  0  0  0  0
  5  4  2  0  0  0  0
  6 25  1  6  0  0  0
  6  5  1  0  0  0  0
  6  1  1  0  0  0  0
  7  8  1  0  0  0  0
  7  1  1  0  0  0  0
  7 42  1  0  0  0  0
  8 44  1  1  0  0  0
  8 27  1  0  0  0  0
  9 10  1  0  0  0  0
  9  8  1  0  0  0  0
 10 11  1  6  0  0  0
 10 47  1  0  0  0  0
 11 48  1  0  0  0  0
 11 12  1  1  0  0  0
 12 49  1  1  0  0  0
 12 13  1  0  0  0  0
 13 50  1  0  0  0  0
 13 14  2  0  0  0  0
 14 15  1  0  0  0  0
 15 16  1  1  0  0  0
 16 52  1  6  0  0  0
 16 17  1  0  0  0  0
 16 37  1  0  0  0  0
 17 54  1  0  0  0  0
 17 18  1  0  0  0  0
 18 19  2  0  0  0  0
 18 55  1  0  0  0  0
 19 20  1  0  0  0  0
 20 57  1  6  0  0  0
 20 21  1  0  0  0  0
 20 39  1  0  0  0  0
 21 40  2  0  0  0  0
 22 21  1  0  0  0  0
 24  5  1  0  0  0  0
 26 61  1  0  0  0  0
 26 25  1  0  0  0  0
 27 62  1  0  0  0  0
 27 64  1  0  0  0  0
 28 10  1  0  0  0  0
 29 67  1  0  0  0  0
 29 28  1  0  0  0  0
 30 11  1  0  0  0  0
 31 69  1  0  0  0  0
 31 12  1  0  0  0  0
 32 73  1  0  0  0  0
 32 14  1  0  0  0  0
 32 72  1  0  0  0  0
 33 15  1  0  0  0  0
 34 36  1  0  0  0  0
 34 33  1  0  0  0  0
 35 34  2  0  0  0  0
 36 76  1  0  0  0  0
 38 37  1  0  0  0  0
 38 77  1  0  0  0  0
 39 80  1  0  0  0  0
 39 81  1  0  0  0  0
 43  7  1  0  0  0  0
 45  9  1  0  0  0  0
 46  9  1  0  0  0  0
 51 15  1  0  0  0  0
 53 17  1  0  0  0  0
 56 19  1  0  0  0  0
 58 24  1  0  0  0  0
 59 26  1  0  0  0  0
 60 26  1  0  0  0  0
 63 27  1  0  0  0  0
 65 29  1  0  0  0  0
 66 29  1  0  0  0  0
 68 30  1  0  0  0  0
 70 31  1  0  0  0  0
 71 31  1  0  0  0  0
 74 32  1  0  0  0  0
 75 36  1  0  0  0  0
 78 38  1  0  0  0  0
 79 38  1  0  0  0  0
 82 39  1  0  0  0  0
M  END
$$$$
