2obf_ligand_rnum.pdb
 OpenBabel02151809393D

 41 43  0  0  1  0  0  0  0  0999 V2000
   29.2550   44.8670   22.6150 O   0  0  0  0  0  0  0  0  0  0  0  0
   29.6460   45.6380   21.4750 C   0  0  0  0  0  0  0  0  0  0  0  0
   29.0460   45.0010   20.2210 C   0  0  2  0  0  0  0  0  0  0  0  0
   29.6530   43.6830   19.9820 N   0  3  0  0  0  0  0  0  0  0  0  0
   28.8950   42.9490   18.9590 C   0  0  0  0  0  0  0  0  0  0  0  0
   28.7060   43.7940   17.6930 C   0  0  0  0  0  0  0  0  0  0  0  0
   28.3080   43.1710   16.5160 C   0  0  0  0  0  0  0  0  0  0  0  0
   28.0810   43.9240   15.3680 C   0  0  0  0  0  0  0  0  0  0  0  0
   28.2560   45.3040   15.3970 C   0  0  0  0  0  0  0  0  0  0  0  0
   28.6580   45.9300   16.5730 C   0  0  0  0  0  0  0  0  0  0  0  0
   28.8850   45.1770   17.7230 C   0  0  0  0  0  0  0  0  0  0  0  0
   29.3290   45.8840   19.0030 C   0  0  0  0  0  0  0  0  0  0  0  0
   27.5650   43.1380   13.8930 S   0  0  0  0  0  0  0  0  0  0  0  0
   26.1410   42.9690   13.9040 O   0  0  0  0  0  0  0  0  0  0  0  0
   28.2170   41.7910   13.7900 O   0  0  0  0  0  0  0  0  0  0  0  0
   28.0200   44.0390   12.6150 N   0  0  0  0  0  0  0  0  0  0  0  0
   27.0810   44.8330   11.8090 C   0  0  0  0  0  0  0  0  0  0  0  0
   26.0370   45.5360   12.4050 C   0  0  0  0  0  0  0  0  0  0  0  0
   25.2080   46.3430   11.6290 C   0  0  0  0  0  0  0  0  0  0  0  0
   25.4190   46.4510   10.2550 C   0  0  0  0  0  0  0  0  0  0  0  0
   26.4570   45.7420    9.6600 C   0  0  0  0  0  0  0  0  0  0  0  0
   27.2860   44.9320   10.4360 C   0  0  0  0  0  0  0  0  0  0  0  0
   24.4170   47.4760    9.2870 Cl  0  0  0  0  0  0  0  0  0  0  0  0
   29.6120   43.9820   22.6270 H   0  0  0  0  0  0  0  0  0  0  0  0
   30.7300   45.6960   21.4050 H   0  0  0  0  0  0  0  0  0  0  0  0
   29.2740   46.6550   21.6070 H   0  0  0  0  0  0  0  0  0  0  0  0
   27.9690   44.8910   20.3600 H   0  0  0  0  0  0  0  0  0  0  0  0
   29.6280   43.1260   20.8290 H   0  0  0  0  0  0  0  0  0  0  0  0
   30.6120   43.7910   19.6850 H   0  0  0  0  0  0  0  0  0  0  0  0
   27.9120   42.6940   19.3580 H   0  0  0  0  0  0  0  0  0  0  0  0
   29.3730   42.0100   18.7110 H   0  0  0  0  0  0  0  0  0  0  0  0
   28.1600   42.1010   16.4940 H   0  0  0  0  0  0  0  0  0  0  0  0
   28.0800   45.8910   14.5110 H   0  0  0  0  0  0  0  0  0  0  0  0
   28.7890   47.0000   16.5850 H   0  0  0  0  0  0  0  0  0  0  0  0
   30.3950   46.0810   18.9190 H   0  0  0  0  0  0  0  0  0  0  0  0
   28.8120   46.8350   19.1010 H   0  0  0  0  0  0  0  0  0  0  0  0
   28.8610   43.7420   12.1380 H   0  0  0  0  0  0  0  0  0  0  0  0
   25.8720   45.4870   13.4710 H   0  0  0  0  0  0  0  0  0  0  0  0
   24.4070   46.8960   12.0970 H   0  0  0  0  0  0  0  0  0  0  0  0
   26.6290   45.8130    8.5960 H   0  0  0  0  0  0  0  0  0  0  0  0
   28.1110   44.4150    9.9740 H   0  0  0  0  0  0  0  0  0  0  0  0
  1 24  1  0  0  0  0
  2 26  1  0  0  0  0
  2  1  1  0  0  0  0
  3 27  1  1  0  0  0
  3  2  1  0  0  0  0
  4  3  1  0  0  0  0
  4 28  1  0  0  0  0
  5 30  1  0  0  0  0
  5  4  1  0  0  0  0
  6 11  1  0  0  0  0
  6  5  1  0  0  0  0
  7  6  2  0  0  0  0
  8  9  2  0  0  0  0
  8  7  1  0  0  0  0
  9 10  1  0  0  0  0
 10 34  1  0  0  0  0
 10 11  2  0  0  0  0
 11 12  1  0  0  0  0
 12 36  1  0  0  0  0
 12  3  1  0  0  0  0
 13 14  2  0  0  0  0
 13  8  1  0  0  0  0
 15 13  2  0  0  0  0
 16 13  1  0  0  0  0
 17 18  1  0  0  0  0
 17 16  1  0  0  0  0
 18 38  1  0  0  0  0
 19 39  1  0  0  0  0
 19 18  2  0  0  0  0
 20 19  1  0  0  0  0
 21 20  2  0  0  0  0
 21 22  1  0  0  0  0
 22 17  2  0  0  0  0
 23 20  1  0  0  0  0
 25  2  1  0  0  0  0
 29  4  1  0  0  0  0
 31  5  1  0  0  0  0
 32  7  1  0  0  0  0
 33  9  1  0  0  0  0
 35 12  1  0  0  0  0
 37 16  1  0  0  0  0
 40 21  1  0  0  0  0
 41 22  1  0  0  0  0
M  CHG  1   4   1
M  END
$$$$
