1w3k_ligand_rnum.pdb
 OpenBabel02151809393D

 42 43  0  0  1  0  0  0  0  0999 V2000
   61.3170   47.7350   36.3720 C   0  0  2  0  0  0  0  0  0  0  0  0
   60.6690   48.6770   37.3990 C   0  0  2  0  0  0  0  0  0  0  0  0
   59.1680   48.4110   37.5300 C   0  0  1  0  0  0  0  0  0  0  0  0
   58.9480   46.9260   37.8160 C   0  0  1  0  0  0  0  0  0  0  0  0
   57.4890   46.5200   37.9400 C   0  0  0  0  0  0  0  0  0  0  0  0
   60.9700   46.2910   36.7050 C   0  0  1  0  0  0  0  0  0  0  0  0
   62.7210   47.9140   36.3200 O   0  0  0  0  0  0  0  0  0  0  0  0
   60.8770   50.0310   37.0260 O   0  0  0  0  0  0  0  0  0  0  0  0
   58.6050   49.1900   38.5770 O   0  0  0  0  0  0  0  0  0  0  0  0
   59.5490   46.1750   36.7550 O   0  0  0  0  0  0  0  0  0  0  0  0
   56.8470   46.7590   36.6990 O   0  0  0  0  0  0  0  0  0  0  0  0
   63.3200   43.9820   37.3350 C   0  0  0  0  0  0  0  0  0  0  0  0
   62.6850   43.5230   36.0370 C   0  0  2  0  0  0  0  0  0  0  0  0
   61.2830   44.1120   35.8030 C   0  0  2  0  0  0  0  0  0  0  0  0
   60.6870   43.5210   34.5170 C   0  0  1  0  0  0  0  0  0  0  0  0
   60.6940   41.9790   34.5970 C   0  0  0  0  0  0  0  0  0  0  0  0
   62.4830   43.6730   38.4460 O   0  0  0  0  0  0  0  0  0  0  0  0
   62.5750   42.1090   36.1740 O   0  0  0  0  0  0  0  0  0  0  0  0
   61.3510   45.5240   35.6570 O   0  0  0  0  0  0  0  0  0  0  0  0
   59.3770   43.9260   34.2980 O   0  0  0  0  0  0  0  0  0  0  0  0
   62.0470   41.5380   34.9520 N   0  0  0  0  0  0  0  0  0  0  0  0
   60.9050   47.9460   35.3860 H   0  0  0  0  0  0  0  0  0  0  0  0
   61.1430   48.5160   38.3690 H   0  0  0  0  0  0  0  0  0  0  0  0
   58.6750   48.6820   36.5950 H   0  0  0  0  0  0  0  0  0  0  0  0
   59.4430   46.6590   38.7520 H   0  0  0  0  0  0  0  0  0  0  0  0
   56.9790   47.0750   38.7270 H   0  0  0  0  0  0  0  0  0  0  0  0
   57.4080   45.4620   38.1860 H   0  0  0  0  0  0  0  0  0  0  0  0
   61.3980   45.9100   37.6400 H   0  0  0  0  0  0  0  0  0  0  0  0
   62.9270   48.8460   36.1300 H   0  0  0  0  0  0  0  0  0  0  0  0
   61.7950   50.2720   37.2610 H   0  0  0  0  0  0  0  0  0  0  0  0
   59.0430   48.9520   39.4060 H   0  0  0  0  0  0  0  0  0  0  0  0
   57.3160   46.2710   36.0040 H   0  0  0  0  0  0  0  0  0  0  0  0
   63.5220   45.0520   37.3100 H   0  0  0  0  0  0  0  0  0  0  0  0
   64.2810   43.4910   37.4810 H   0  0  0  0  0  0  0  0  0  0  0  0
   63.3170   43.7910   35.1950 H   0  0  0  0  0  0  0  0  0  0  0  0
   60.6200   43.8500   36.6300 H   0  0  0  0  0  0  0  0  0  0  0  0
   61.2880   43.8340   33.6630 H   0  0  0  0  0  0  0  0  0  0  0  0
   60.4040   41.5320   33.6460 H   0  0  0  0  0  0  0  0  0  0  0  0
   59.9960   41.6300   35.3580 H   0  0  0  0  0  0  0  0  0  0  0  0
   63.0060   43.2100   39.0890 H   0  0  0  0  0  0  0  0  0  0  0  0
   59.3000   44.8310   34.5670 H   0  0  0  0  0  0  0  0  0  0  0  0
   62.7230   41.8000   34.2260 H   0  0  0  0  0  0  0  0  0  0  0  0
  1  6  1  1  0  0  0
  2  1  1  6  0  0  0
  2 23  1  0  0  0  0
  3  2  1  6  0  0  0
  3  9  1  0  0  0  0
  4  3  1  6  0  0  0
  4  5  1  0  0  0  0
  4 25  1  0  0  0  0
  5 27  1  0  0  0  0
  5 26  1  0  0  0  0
  6 10  1  0  0  0  0
  6 28  1  1  0  0  0
  7  1  1  0  0  0  0
  8 30  1  0  0  0  0
  8  2  1  0  0  0  0
  9 31  1  0  0  0  0
 10  4  1  0  0  0  0
 11  5  1  0  0  0  0
 12 34  1  0  0  0  0
 12 17  1  0  0  0  0
 13 14  1  6  0  0  0
 13 18  1  0  0  0  0
 13 12  1  0  0  0  0
 14 15  1  6  0  0  0
 14 36  1  0  0  0  0
 15 37  1  6  0  0  0
 15 16  1  0  0  0  0
 16 21  1  0  0  0  0
 16 39  1  0  0  0  0
 17 40  1  0  0  0  0
 19 14  1  0  0  0  0
 19  6  1  0  0  0  0
 20 15  1  0  0  0  0
 20 41  1  0  0  0  0
 21 18  1  0  0  0  0
 22  1  1  0  0  0  0
 24  3  1  0  0  0  0
 29  7  1  0  0  0  0
 32 11  1  0  0  0  0
 33 12  1  0  0  0  0
 35 13  1  0  0  0  0
 38 16  1  0  0  0  0
 42 21  1  0  0  0  0
M  END
$$$$
