2hb1_ligand_rnum.pdb
 OpenBabel02151809393D

 17 17  0  0  0  0  0  0  0  0999 V2000
   45.2050   12.9580    1.1080 C   0  0  0  0  0  0  0  0  0  0  0  0
   45.7690   13.3870    2.3300 C   0  0  0  0  0  0  0  0  0  0  0  0
   44.4110   14.2720    0.3820 S   0  0  0  0  0  0  0  0  0  0  0  0
   44.7680   15.3960    1.6130 C   0  0  0  0  0  0  0  0  0  0  0  0
   45.5320   14.7580    2.6290 C   0  0  0  0  0  0  0  0  0  0  0  0
   44.3330   16.7240    1.5480 C   0  0  0  0  0  0  0  0  0  0  0  0
   43.6320   17.0320    0.4400 O   0  0  0  0  0  0  0  0  0  0  0  0
   46.0460   15.3500    3.8450 O   0  0  0  0  0  0  0  0  0  0  0  0
   47.2700   16.0930    3.6600 C   0  0  0  0  0  0  0  0  0  0  0  0
   47.5730   16.9740    4.8740 C   0  0  0  0  0  0  0  0  0  0  0  0
   48.7260   17.6560    4.7940 O   0  0  0  0  0  0  0  0  0  0  0  0
   44.5590   17.5410    2.4090 O   0  5  0  0  0  0  0  0  0  0  0  0
   46.8560   17.0500    5.8220 O   0  5  0  0  0  0  0  0  0  0  0  0
   46.7460   12.2290    3.4440 Br  0  0  0  0  0  0  0  0  0  0  0  0
   45.2280   11.9850    0.6410 H   0  0  0  0  0  0  0  0  0  0  0  0
   47.2040   16.7310    2.7780 H   0  0  0  0  0  0  0  0  0  0  0  0
   48.0960   15.4000    3.5030 H   0  0  0  0  0  0  0  0  0  0  0  0
  1  2  2  0  0  0  0
  2  5  1  0  0  0  0
  2 14  1  0  0  0  0
  3  1  1  0  0  0  0
  3  4  1  0  0  0  0
  4  5  2  0  0  0  0
  5  8  1  0  0  0  0
  6  4  1  0  0  0  0
  6 12  1  0  0  0  0
  7  6  2  0  0  0  0
  9  8  1  0  0  0  0
  9 10  1  0  0  0  0
 10 13  1  0  0  0  0
 11 10  2  0  0  0  0
 15  1  1  0  0  0  0
 16  9  1  0  0  0  0
 17  9  1  0  0  0  0
M  CHG  2  12  -1  13  -1
M  END
$$$$
