3imc_ligand_rnum.pdb
 OpenBabel02151809393D

 20 21  0  0  0  0  0  0  0  0999 V2000
   10.8110    9.4790   -4.9270 C   0  0  0  0  0  0  0  0  0  0  0  0
   15.0230   10.6810   -0.2970 C   0  0  0  0  0  0  0  0  0  0  0  0
   14.4980    9.8200   -4.7700 C   0  0  0  0  0  0  0  0  0  0  0  0
   13.7050   10.4860   -0.6880 C   0  0  0  0  0  0  0  0  0  0  0  0
   15.5050   10.0790   -3.8390 C   0  0  0  0  0  0  0  0  0  0  0  0
   12.8240    9.9860   -3.0220 C   0  0  0  0  0  0  0  0  0  0  0  0
   15.8520   10.5520   -1.3710 N   0  0  0  0  0  0  0  0  0  0  0  0
   12.1910    9.5130   -5.2970 O   0  0  0  0  0  0  0  0  0  0  0  0
   13.1670    9.7640   -4.3610 C   0  0  0  0  0  0  0  0  0  0  0  0
   13.8330   10.2430   -2.0880 C   0  0  0  0  0  0  0  0  0  0  0  0
   15.1500   10.2940   -2.4980 C   0  0  0  0  0  0  0  0  0  0  0  0
   10.1950    9.4940   -5.8220 H   0  0  0  0  0  0  0  0  0  0  0  0
   10.5840    8.5670   -4.3750 H   0  0  0  0  0  0  0  0  0  0  0  0
   10.4990   10.3330   -4.3360 H   0  0  0  0  0  0  0  0  0  0  0  0
   15.4220   10.8940    0.6840 H   0  0  0  0  0  0  0  0  0  0  0  0
   14.7530    9.6600   -5.8070 H   0  0  0  0  0  0  0  0  0  0  0  0
   12.8140   10.5210   -0.0840 H   0  0  0  0  0  0  0  0  0  0  0  0
   16.5280   10.0660   -4.1400 H   0  0  0  0  0  0  0  0  0  0  0  0
   11.8070    9.9560   -2.6640 H   0  0  0  0  0  0  0  0  0  0  0  0
   16.8540   10.6410   -1.3060 H   0  0  0  0  0  0  0  0  0  0  0  0
  1 13  1  0  0  0  0
  1 14  1  0  0  0  0
  2 15  1  0  0  0  0
  3  9  2  0  0  0  0
  3  5  1  0  0  0  0
  4  2  2  0  0  0  0
  4 17  1  0  0  0  0
  5 11  2  0  0  0  0
  6 19  1  0  0  0  0
  6 10  2  0  0  0  0
  7 20  1  0  0  0  0
  7  2  1  0  0  0  0
  8  1  1  0  0  0  0
  8  9  1  0  0  0  0
  9  6  1  0  0  0  0
 10  4  1  0  0  0  0
 11 10  1  0  0  0  0
 11  7  1  0  0  0  0
 12  1  1  0  0  0  0
 16  3  1  0  0  0  0
 18  5  1  0  0  0  0
M  END
$$$$
