1q8u_ligand_rnum.pdb
 OpenBabel02151809393D

 44 46  0  0  1  0  0  0  0  0999 V2000
    9.0020   11.3030    4.8480 O   0  0  0  0  0  0  0  0  0  0  0  0
    8.8080    9.9310    4.3060 S   0  0  0  0  0  0  0  0  0  0  0  0
    8.5320    8.8530    5.2640 O   0  0  0  0  0  0  0  0  0  0  0  0
   10.1290    9.3450    3.3860 N   0  0  0  0  0  0  0  0  0  0  0  0
   10.5140    7.8890    3.6060 C   0  0  1  0  0  0  0  0  0  0  0  0
    9.5510    6.9010    2.9710 C   0  0  0  0  0  0  0  0  0  0  0  0
   11.9540    7.5010    3.2490 C   0  0  0  0  0  0  0  0  0  0  0  0
   12.8840    8.2120    4.2120 N   0  3  0  0  0  0  0  0  0  0  0  0
   13.3440    9.5160    3.5810 C   0  0  0  0  0  0  0  0  0  0  0  0
   12.2700   10.6190    3.5870 C   0  0  0  0  0  0  0  0  0  0  0  0
   11.0890   10.2490    2.6990 C   0  0  0  0  0  0  0  0  0  0  0  0
    7.3940    9.9380    3.2180 C   0  0  0  0  0  0  0  0  0  0  0  0
    5.9780    9.8950    3.6190 C   0  0  0  0  0  0  0  0  0  0  0  0
    5.3680    9.9110    4.9390 C   0  0  0  0  0  0  0  0  0  0  0  0
    6.0680   10.0340    6.2580 C   0  0  0  0  0  0  0  0  0  0  0  0
    5.0230    9.8180    2.5610 C   0  0  0  0  0  0  0  0  0  0  0  0
    5.4370    9.7960    1.2000 C   0  0  0  0  0  0  0  0  0  0  0  0
    6.7620    9.8350    0.8680 C   0  0  0  0  0  0  0  0  0  0  0  0
    7.7460    9.8780    1.8860 C   0  0  0  0  0  0  0  0  0  0  0  0
    3.6240    9.7490    2.8360 C   0  0  0  0  0  0  0  0  0  0  0  0
    3.1610    9.7220    4.0620 N   0  0  0  0  0  0  0  0  0  0  0  0
    4.0030    9.8280    5.1100 C   0  0  0  0  0  0  0  0  0  0  0  0
   10.4630    7.6950    4.6770 H   0  0  0  0  0  0  0  0  0  0  0  0
    9.6540    5.8990    3.3810 H   0  0  0  0  0  0  0  0  0  0  0  0
    8.5120    7.1990    3.1050 H   0  0  0  0  0  0  0  0  0  0  0  0
    9.7400    6.8480    1.9000 H   0  0  0  0  0  0  0  0  0  0  0  0
   12.1970    7.6870    2.2020 H   0  0  0  0  0  0  0  0  0  0  0  0
   12.1100    6.4380    3.3970 H   0  0  0  0  0  0  0  0  0  0  0  0
   13.6940    7.6260    4.3560 H   0  0  0  0  0  0  0  0  0  0  0  0
   12.4230    8.3660    5.0990 H   0  0  0  0  0  0  0  0  0  0  0  0
   13.7300    9.3450    2.5750 H   0  0  0  0  0  0  0  0  0  0  0  0
   14.1920    9.8530    4.1740 H   0  0  0  0  0  0  0  0  0  0  0  0
   12.7150   11.5410    3.2120 H   0  0  0  0  0  0  0  0  0  0  0  0
   11.9400   10.8290    4.6030 H   0  0  0  0  0  0  0  0  0  0  0  0
   10.5640   11.1620    2.4400 H   0  0  0  0  0  0  0  0  0  0  0  0
   11.4100    9.8160    1.7510 H   0  0  0  0  0  0  0  0  0  0  0  0
    5.4140   10.3260    7.0790 H   0  0  0  0  0  0  0  0  0  0  0  0
    6.5080    9.0690    6.4560 H   0  0  0  0  0  0  0  0  0  0  0  0
    6.8560   10.7820    6.2060 H   0  0  0  0  0  0  0  0  0  0  0  0
    4.6980    9.7410    0.4130 H   0  0  0  0  0  0  0  0  0  0  0  0
    7.0580    9.8130   -0.1710 H   0  0  0  0  0  0  0  0  0  0  0  0
    8.7610    9.9030    1.5350 H   0  0  0  0  0  0  0  0  0  0  0  0
    2.9140    9.6590    2.0320 H   0  0  0  0  0  0  0  0  0  0  0  0
    3.5370    9.8220    6.0850 H   0  0  0  0  0  0  0  0  0  0  0  0
  2  1  2  0  0  0  0
  2  3  2  0  0  0  0
  4  5  1  0  0  0  0
  4  2  1  0  0  0  0
  5 23  1  1  0  0  0
  6 25  1  0  0  0  0
  6 24  1  0  0  0  0
  6  5  1  0  0  0  0
  7 28  1  0  0  0  0
  7  5  1  0  0  0  0
  7  8  1  0  0  0  0
  8 29  1  0  0  0  0
  8 30  1  0  0  0  0
  9 10  1  0  0  0  0
  9 32  1  0  0  0  0
  9  8  1  0  0  0  0
 10 34  1  0  0  0  0
 11  4  1  0  0  0  0
 11 10  1  0  0  0  0
 12 13  1  0  0  0  0
 12  2  1  0  0  0  0
 13 14  2  0  0  0  0
 14 22  1  0  0  0  0
 14 15  1  0  0  0  0
 15 38  1  0  0  0  0
 15 37  1  0  0  0  0
 16 20  2  0  0  0  0
 16 13  1  0  0  0  0
 17 16  1  0  0  0  0
 18 17  2  0  0  0  0
 18 19  1  0  0  0  0
 19 12  2  0  0  0  0
 20 21  1  0  0  0  0
 21 22  2  0  0  0  0
 22 44  1  0  0  0  0
 26  6  1  0  0  0  0
 27  7  1  0  0  0  0
 31  9  1  0  0  0  0
 33 10  1  0  0  0  0
 35 11  1  0  0  0  0
 36 11  1  0  0  0  0
 39 15  1  0  0  0  0
 40 17  1  0  0  0  0
 41 18  1  0  0  0  0
 42 19  1  0  0  0  0
 43 20  1  0  0  0  0
M  CHG  1   8   1
M  END
$$$$
