1lbk_ligand_rnum.pdb
 OpenBabel02151809393D

 36 35  0  0  1  0  0  0  0  0999 V2000
    6.6970   38.3320   -1.7540 N   0  3  0  0  0  0  0  0  0  0  0  0
    7.9120   38.3730   -2.6060 C   0  0  2  0  0  0  0  0  0  0  0  0
    7.6830   39.3440   -3.7690 C   0  0  0  0  0  0  0  0  0  0  0  0
    8.6710   39.9450   -4.2450 O   0  0  0  0  0  0  0  0  0  0  0  0
    6.5200   39.4980   -4.1950 O   0  5  0  0  0  0  0  0  0  0  0  0
    8.2190   36.9670   -3.1250 C   0  0  0  0  0  0  0  0  0  0  0  0
    9.6230   36.8110   -3.7290 C   0  0  0  0  0  0  0  0  0  0  0  0
    9.9330   35.4020   -4.2200 C   0  0  0  0  0  0  0  0  0  0  0  0
    9.1050   34.4780   -4.1250 O   0  0  0  0  0  0  0  0  0  0  0  0
   11.1530   35.2390   -4.7400 N   0  0  0  0  0  0  0  0  0  0  0  0
   11.6350   33.9500   -5.2420 C   0  0  2  0  0  0  0  0  0  0  0  0
   13.0820   33.7360   -4.7980 C   0  0  0  0  0  0  0  0  0  0  0  0
   13.8390   34.7000   -4.6280 O   0  0  0  0  0  0  0  0  0  0  0  0
   11.5690   33.8910   -6.7800 C   0  0  0  0  0  0  0  0  0  0  0  0
   11.4270   32.1720   -7.4050 S   0  0  0  0  0  0  0  0  0  0  0  0
   13.4440   32.4620   -4.6170 N   0  0  0  0  0  0  0  0  0  0  0  0
   14.7900   32.1000   -4.1960 C   0  0  0  0  0  0  0  0  0  0  0  0
   14.9210   31.6480   -2.7640 C   0  0  0  0  0  0  0  0  0  0  0  0
   15.9460   31.0120   -2.4420 O   0  0  0  0  0  0  0  0  0  0  0  0
   14.0040   31.9320   -1.9640 O   0  5  0  0  0  0  0  0  0  0  0  0
    6.8360   37.7230   -0.9570 H   0  0  0  0  0  0  0  0  0  0  0  0
    6.5110   39.2680   -1.4170 H   0  0  0  0  0  0  0  0  0  0  0  0
    5.9100   38.0140   -2.3000 H   0  0  0  0  0  0  0  0  0  0  0  0
    8.7330   38.7320   -1.9840 H   0  0  0  0  0  0  0  0  0  0  0  0
    7.4650   36.6670   -3.8550 H   0  0  0  0  0  0  0  0  0  0  0  0
    8.1240   36.2630   -2.2960 H   0  0  0  0  0  0  0  0  0  0  0  0
   10.3770   37.1060   -2.9980 H   0  0  0  0  0  0  0  0  0  0  0  0
    9.7360   37.4810   -4.5810 H   0  0  0  0  0  0  0  0  0  0  0  0
   11.7730   36.0360   -4.8060 H   0  0  0  0  0  0  0  0  0  0  0  0
   11.0350   33.1390   -4.8250 H   0  0  0  0  0  0  0  0  0  0  0  0
   12.4140   34.3910   -7.2530 H   0  0  0  0  0  0  0  0  0  0  0  0
   10.6790   34.4160   -7.1290 H   0  0  0  0  0  0  0  0  0  0  0  0
   11.3060   32.5090   -8.6930 H   0  0  0  0  0  0  0  0  0  0  0  0
   12.7740   31.7220   -4.7680 H   0  0  0  0  0  0  0  0  0  0  0  0
   15.5030   32.9040   -4.3740 H   0  0  0  0  0  0  0  0  0  0  0  0
   15.1130   31.2790   -4.8360 H   0  0  0  0  0  0  0  0  0  0  0  0
  1 22  1  0  0  0  0
  1 21  1  0  0  0  0
  2 24  1  1  0  0  0
  2  1  1  0  0  0  0
  3  2  1  0  0  0  0
  4  3  2  0  0  0  0
  5  3  1  0  0  0  0
  6  2  1  0  0  0  0
  6 26  1  0  0  0  0
  7  6  1  0  0  0  0
  7 27  1  0  0  0  0
  8  9  2  0  0  0  0
  8  7  1  0  0  0  0
 10  8  1  0  0  0  0
 11 30  1  1  0  0  0
 11 12  1  0  0  0  0
 11 10  1  0  0  0  0
 12 13  2  0  0  0  0
 12 16  1  0  0  0  0
 14 11  1  0  0  0  0
 15 14  1  0  0  0  0
 16 17  1  0  0  0  0
 17 18  1  0  0  0  0
 18 19  2  0  0  0  0
 18 20  1  0  0  0  0
 23  1  1  0  0  0  0
 25  6  1  0  0  0  0
 28  7  1  0  0  0  0
 29 10  1  0  0  0  0
 31 14  1  0  0  0  0
 32 14  1  0  0  0  0
 33 15  1  0  0  0  0
 34 16  1  0  0  0  0
 35 17  1  0  0  0  0
 36 17  1  0  0  0  0
M  CHG  3   1   1   5  -1  20  -1
M  END
$$$$
