2yki_ligand_rnum.pdb
 OpenBabel02151809393D

 52 58  0  0  1  0  0  0  0  0999 V2000
   13.3100   14.4050   26.4850 C   0  0  0  0  0  0  0  0  0  0  0  0
   13.0260   14.6140   27.8340 N   0  0  0  0  0  0  0  0  0  0  0  0
   11.7160   14.6960   28.2950 C   0  0  0  0  0  0  0  0  0  0  0  0
    9.2910   14.5930   27.4880 N   0  0  0  0  0  0  0  0  0  0  0  0
   12.2830   14.2610   25.5220 C   0  0  0  0  0  0  0  0  0  0  0  0
    9.7400   14.2580   25.3430 N   0  0  0  0  0  0  0  0  0  0  0  0
    8.7580   14.4110   26.2680 C   0  0  0  0  0  0  0  0  0  0  0  0
    3.5690   11.9560   24.6550 N   0  0  0  0  0  0  0  0  0  0  0  0
   10.9530   14.3440   25.9690 C   0  0  0  0  0  0  0  0  0  0  0  0
   -1.1620   10.2670   26.1340 N   0  0  0  0  0  0  0  0  0  0  0  0
   10.6580   14.5590   27.3740 C   0  0  0  0  0  0  0  0  0  0  0  0
   -2.3590   11.5620   24.3860 N   0  0  0  0  0  0  0  0  0  0  0  0
    7.3310   14.4050   26.0300 C   0  0  0  0  0  0  0  0  0  0  0  0
    4.4750   14.5760   25.6390 C   0  0  0  0  0  0  0  0  0  0  0  0
    5.1590   15.5770   26.3920 C   0  0  0  0  0  0  0  0  0  0  0  0
    6.5780   15.4750   26.5770 C   0  0  0  0  0  0  0  0  0  0  0  0
    2.4440   11.4850   24.0790 C   0  0  0  0  0  0  0  0  0  0  0  0
    1.2430   11.0110   24.8590 C   0  0  0  0  0  0  0  0  0  0  0  0
    2.4240   11.4800   22.8390 O   0  0  0  0  0  0  0  0  0  0  0  0
    1.2920   10.1820   26.0380 C   0  0  0  0  0  0  0  0  0  0  0  0
    0.0470    9.8260   26.6640 C   0  0  0  0  0  0  0  0  0  0  0  0
    4.5710   12.3870   24.2720 C   0  0  1  0  0  0  0  0  0  0  0  0
    5.1960   13.4650   25.0650 C   0  0  0  0  0  0  0  0  0  0  0  0
    6.5850   13.3350   25.2300 C   0  0  0  0  0  0  0  0  0  0  0  0
    5.8240   11.5170   23.9560 C   0  0  0  0  0  0  0  0  0  0  0  0
    7.0090   12.1050   24.5250 C   0  0  0  0  0  0  0  0  0  0  0  0
    8.2930   11.4330   24.3260 C   0  0  0  0  0  0  0  0  0  0  0  0
    8.3700   10.2140   23.5750 C   0  0  0  0  0  0  0  0  0  0  0  0
    7.1600    9.6370   23.0090 C   0  0  0  0  0  0  0  0  0  0  0  0
    5.8960   10.2880   23.1980 C   0  0  0  0  0  0  0  0  0  0  0  0
   -0.0800   11.4560   24.3250 C   0  0  0  0  0  0  0  0  0  0  0  0
   -1.2240   11.0730   24.9920 C   0  0  0  0  0  0  0  0  0  0  0  0
   -1.9350   12.2990   23.2940 C   0  0  0  0  0  0  0  0  0  0  0  0
   -0.5270   12.2640   23.2210 C   0  0  0  0  0  0  0  0  0  0  0  0
   14.3510   14.3540   26.2030 H   0  0  0  0  0  0  0  0  0  0  0  0
   11.5510   14.8700   29.3460 H   0  0  0  0  0  0  0  0  0  0  0  0
    8.7640   14.7330   28.3420 H   0  0  0  0  0  0  0  0  0  0  0  0
   12.5110   14.0970   24.4800 H   0  0  0  0  0  0  0  0  0  0  0  0
    3.5220   11.9470   25.6640 H   0  0  0  0  0  0  0  0  0  0  0  0
   -3.3330   11.4670   24.6610 H   0  0  0  0  0  0  0  0  0  0  0  0
    3.4070   14.6540   25.4980 H   0  0  0  0  0  0  0  0  0  0  0  0
    4.6100   16.3970   26.8320 H   0  0  0  0  0  0  0  0  0  0  0  0
    7.0650   16.1860   27.2070 H   0  0  0  0  0  0  0  0  0  0  0  0
    2.2330    9.8430   26.4460 H   0  0  0  0  0  0  0  0  0  0  0  0
    0.0110    9.2130   27.5520 H   0  0  0  0  0  0  0  0  0  0  0  0
    4.3630   12.9000   23.3390 H   0  0  0  0  0  0  0  0  0  0  0  0
    9.1950   11.8380   24.7540 H   0  0  0  0  0  0  0  0  0  0  0  0
    9.3180    9.7100   23.4540 H   0  0  0  0  0  0  0  0  0  0  0  0
    7.1960    8.6930   22.5260 H   0  0  0  0  0  0  0  0  0  0  0  0
    4.9960    9.8510   22.7910 H   0  0  0  0  0  0  0  0  0  0  0  0
   -2.6500   12.7960   22.6540 H   0  0  0  0  0  0  0  0  0  0  0  0
    0.0960   12.7460   22.4820 H   0  0  0  0  0  0  0  0  0  0  0  0
  1  2  2  0  0  0  0
  2  3  1  0  0  0  0
  3 36  1  0  0  0  0
  4 37  1  0  0  0  0
  5  9  2  0  0  0  0
  5  1  1  0  0  0  0
  6  9  1  0  0  0  0
  6  7  2  0  0  0  0
  7  4  1  0  0  0  0
  8 39  1  0  0  0  0
  9 11  1  0  0  0  0
 10 21  1  0  0  0  0
 11  4  1  0  0  0  0
 11  3  2  0  0  0  0
 12 40  1  0  0  0  0
 12 32  1  0  0  0  0
 13  7  1  0  0  0  0
 13 16  2  0  0  0  0
 14 15  2  0  0  0  0
 15 16  1  0  0  0  0
 15 42  1  0  0  0  0
 16 43  1  0  0  0  0
 17  8  1  0  0  0  0
 17 18  1  0  0  0  0
 18 20  1  0  0  0  0
 19 17  2  0  0  0  0
 20 44  1  0  0  0  0
 20 21  2  0  0  0  0
 21 45  1  0  0  0  0
 22 46  1  6  0  0  0
 22  8  1  0  0  0  0
 22 23  1  0  0  0  0
 23 24  2  0  0  0  0
 23 14  1  0  0  0  0
 24 13  1  0  0  0  0
 25 22  1  0  0  0  0
 25 26  2  0  0  0  0
 26 24  1  0  0  0  0
 27 26  1  0  0  0  0
 27 47  1  0  0  0  0
 28 27  2  0  0  0  0
 29 30  2  0  0  0  0
 29 28  1  0  0  0  0
 30 25  1  0  0  0  0
 31 18  2  0  0  0  0
 31 32  1  0  0  0  0
 32 10  2  0  0  0  0
 33 12  1  0  0  0  0
 34 33  2  0  0  0  0
 34 31  1  0  0  0  0
 35  1  1  0  0  0  0
 38  5  1  0  0  0  0
 41 14  1  0  0  0  0
 48 28  1  0  0  0  0
 49 29  1  0  0  0  0
 50 30  1  0  0  0  0
 51 33  1  0  0  0  0
 52 34  1  0  0  0  0
M  END
$$$$
