2vvn_ligand_rnum.pdb
 OpenBabel02151809393D

 33 34  0  0  1  0  0  0  0  0999 V2000
    6.3930  -12.1410    4.2100 C   0  0  2  0  0  0  0  0  0  0  0  0
    7.8120  -11.7890    3.8030 C   0  0  1  0  0  0  0  0  0  0  0  0
    7.6180  -10.6840    2.7300 C   0  0  2  0  0  0  0  0  0  0  0  0
    6.5650  -11.0700    1.6530 C   0  0  1  0  0  0  0  0  0  0  0  0
    5.2230  -11.2940    2.3350 C   0  0  1  0  0  0  0  0  0  0  0  0
    4.0720  -11.7090    1.4120 C   0  0  0  0  0  0  0  0  0  0  0  0
    7.5900  -10.6140    5.9080 C   0  0  2  0  0  0  0  0  0  0  0  0
    7.7110   -9.0540    9.2650 C   0  0  0  0  0  0  0  0  0  0  0  0
    8.3810  -11.0590    4.9600 N   0  3  0  0  0  0  0  0  0  0  0  0
    8.8330  -10.2560    2.0900 O   0  0  0  0  0  0  0  0  0  0  0  0
    6.3580  -10.0280    0.6770 O   0  0  0  0  0  0  0  0  0  0  0  0
    5.4240  -12.3820    3.2010 O   0  0  0  0  0  0  0  0  0  0  0  0
    7.9820   -9.9040    6.9460 N   0  0  0  0  0  0  0  0  0  0  0  0
    4.4510  -12.8820    0.6970 O   0  0  0  0  0  0  0  0  0  0  0  0
    5.9220  -11.1740    5.6440 S   0  0  0  0  0  0  0  0  0  0  0  0
    7.0340   -9.5160    7.9880 C   0  0  0  0  0  0  0  0  0  0  0  0
    6.4910  -13.1370    4.6390 H   0  0  0  0  0  0  0  0  0  0  0  0
    8.3570  -12.5940    3.3600 H   0  0  0  0  0  0  0  0  0  0  0  0
    7.2450   -9.7810    3.2190 H   0  0  0  0  0  0  0  0  0  0  0  0
    6.8940  -11.9670    1.1270 H   0  0  0  0  0  0  0  0  0  0  0  0
    4.9290  -10.4120    2.9020 H   0  0  0  0  0  0  0  0  0  0  0  0
    3.8190  -10.9210    0.7050 H   0  0  0  0  0  0  0  0  0  0  0  0
    3.1800  -11.9020    2.0000 H   0  0  0  0  0  0  0  0  0  0  0  0
    6.9840   -8.7450   10.0150 H   0  0  0  0  0  0  0  0  0  0  0  0
    8.3800   -9.8080    9.6780 H   0  0  0  0  0  0  0  0  0  0  0  0
    8.3090   -8.1770    9.0280 H   0  0  0  0  0  0  0  0  0  0  0  0
    9.3720  -10.8470    4.9880 H   0  0  0  0  0  0  0  0  0  0  0  0
    8.6290   -9.5270    1.5170 H   0  0  0  0  0  0  0  0  0  0  0  0
    6.2700  -10.4370   -0.1810 H   0  0  0  0  0  0  0  0  0  0  0  0
    8.9500   -9.6110    7.0110 H   0  0  0  0  0  0  0  0  0  0  0  0
    4.6420  -12.6430   -0.2050 H   0  0  0  0  0  0  0  0  0  0  0  0
    6.3800   -8.7370    7.6000 H   0  0  0  0  0  0  0  0  0  0  0  0
    6.4040  -10.3670    8.2150 H   0  0  0  0  0  0  0  0  0  0  0  0
  1  2  1  6  0  0  0
  1 17  1  0  0  0  0
  1 15  1  0  0  0  0
  2  3  1  6  0  0  0
  2  9  1  0  0  0  0
  3  4  1  6  0  0  0
  3 19  1  0  0  0  0
  4  5  1  1  0  0  0
  5 21  1  1  0  0  0
  5 12  1  0  0  0  0
  6 23  1  0  0  0  0
  6  5  1  0  0  0  0
  7 13  1  1  0  0  0
  8 25  1  0  0  0  0
  8 24  1  0  0  0  0
  9 27  1  0  0  0  0
  9  7  1  0  0  0  0
 10  3  1  0  0  0  0
 11  4  1  0  0  0  0
 12  1  1  0  0  0  0
 13 30  1  0  0  0  0
 13 16  1  0  0  0  0
 14  6  1  0  0  0  0
 15  7  1  0  0  0  0
 16 33  1  0  0  0  0
 16  8  1  0  0  0  0
 18  2  1  0  0  0  0
 20  4  1  0  0  0  0
 22  6  1  0  0  0  0
 26  8  1  0  0  0  0
 28 10  1  0  0  0  0
 29 11  1  0  0  0  0
 31 14  1  0  0  0  0
 32 16  1  0  0  0  0
M  CHG  1   9   1
M  END
$$$$
