3fk1_ligand_rnum.pdb
 OpenBabel02151809393D

 15 14  0  0  0  0  0  0  0  0999 V2000
   60.1760    7.9310   28.2330 C   0  0  0  0  0  0  0  0  0  0  0  0
   60.4590    7.9900   30.6950 C   0  0  0  0  0  0  0  0  0  0  0  0
   60.9730    8.8470   31.7490 C   0  0  0  0  0  0  0  0  0  0  0  0
   60.6310   10.2720   27.1240 O   0  0  0  0  0  0  0  0  0  0  0  0
   59.5320    8.3940   25.8470 O   0  5  0  0  0  0  0  0  0  0  0  0
   62.0050    8.2870   26.4600 O   0  5  0  0  0  0  0  0  0  0  0  0
   61.5270    9.9790   31.4260 O   0  0  0  0  0  0  0  0  0  0  0  0
   60.6030    8.7900   26.8280 P   0  0  2  0  0  0  0  0  0  0  0  0
   60.8270    8.4300   32.8680 O   0  5  0  0  0  0  0  0  0  0  0  0
   60.7100    8.5820   29.3970 N   0  0  0  0  0  0  0  0  0  0  0  0
   60.5150    6.8990   28.1930 H   0  0  0  0  0  0  0  0  0  0  0  0
   59.0920    7.8980   28.3470 H   0  0  0  0  0  0  0  0  0  0  0  0
   59.3770    8.0790   30.7970 H   0  0  0  0  0  0  0  0  0  0  0  0
   60.5860    6.9510   30.9010 H   0  0  0  0  0  0  0  0  0  0  0  0
   61.7190    8.5960   29.2920 H   0  0  0  0  0  0  0  0  0  0  0  0
  1 12  1  0  0  0  0
  1 10  1  0  0  0  0
  2 13  1  0  0  0  0
  2 14  1  0  0  0  0
  2  3  1  0  0  0  0
  3  9  1  0  0  0  0
  6  8  1  0  0  0  0
  7  3  2  0  0  0  0
  8  5  2  6  0  0  0
  8  4  1  0  0  0  0
  8  1  1  0  0  0  0
 10  2  1  0  0  0  0
 11  1  1  0  0  0  0
 15 10  1  0  0  0  0
M  CHG  3   5  -1   6  -1   9  -1
M  END
$$$$
