2vo5_ligand_rnum.pdb
 OpenBabel02151809393D

 42 44  0  0  1  0  0  0  0  0999 V2000
   28.0980   44.6850   -0.0200 O   0  0  0  0  0  0  0  0  0  0  0  0
   27.5320   45.9020   -0.4860 C   0  0  1  0  0  0  0  0  0  0  0  0
   28.0950   47.0940    0.2520 C   0  0  1  0  0  0  0  0  0  0  0  0
   29.3600   46.7230    0.7310 O   0  0  0  0  0  0  0  0  0  0  0  0
   28.1710   48.2240   -0.7810 C   0  0  2  0  0  0  0  0  0  0  0  0
   28.4180   49.4660   -0.0720 O   0  0  0  0  0  0  0  0  0  0  0  0
   26.7880   48.3040   -1.4660 C   0  0  1  0  0  0  0  0  0  0  0  0
   26.4000   49.6390   -2.1070 C   0  0  0  0  0  0  0  0  0  0  0  0
   27.1900   49.8270   -3.2700 O   0  0  0  0  0  0  0  0  0  0  0  0
   26.6230   47.1130   -2.4160 C   0  0  0  0  0  0  0  0  0  0  0  0
   29.3090   47.9170   -1.7690 C   0  0  0  0  0  0  0  0  0  0  0  0
   29.0330   46.6270   -2.4470 N   0  3  1  0  0  0  0  0  0  0  0  0
   27.6950   46.1220   -2.0130 C   0  0  1  0  0  0  0  0  0  0  0  0
   29.0480   46.7000   -3.9540 C   0  0  0  0  0  0  0  0  0  0  0  0
   30.2710   47.3530   -4.5820 C   0  0  0  0  0  0  0  0  0  0  0  0
   31.5620   46.8800   -4.3340 C   0  0  0  0  0  0  0  0  0  0  0  0
   32.6840   47.4960   -4.9300 C   0  0  0  0  0  0  0  0  0  0  0  0
   30.1230   48.4760   -5.4090 C   0  0  0  0  0  0  0  0  0  0  0  0
   31.2340   49.1100   -5.9950 C   0  0  0  0  0  0  0  0  0  0  0  0
   32.5200   48.6130   -5.7630 C   0  0  0  0  0  0  0  0  0  0  0  0
   27.4680   43.9840   -0.1710 H   0  0  0  0  0  0  0  0  0  0  0  0
   26.4710   45.8140   -0.2430 H   0  0  0  0  0  0  0  0  0  0  0  0
   27.4670   47.3490    1.1050 H   0  0  0  0  0  0  0  0  0  0  0  0
   29.3940   45.7790    0.6740 H   0  0  0  0  0  0  0  0  0  0  0  0
   28.4120   50.2100   -0.6660 H   0  0  0  0  0  0  0  0  0  0  0  0
   26.0580   48.1870   -0.6720 H   0  0  0  0  0  0  0  0  0  0  0  0
   26.4750   50.4840   -1.4290 H   0  0  0  0  0  0  0  0  0  0  0  0
   25.3560   49.5980   -2.4210 H   0  0  0  0  0  0  0  0  0  0  0  0
   28.0170   50.2120   -3.0040 H   0  0  0  0  0  0  0  0  0  0  0  0
   26.5100   47.3760   -3.4610 H   0  0  0  0  0  0  0  0  0  0  0  0
   25.6620   46.6590   -2.1840 H   0  0  0  0  0  0  0  0  0  0  0  0
   30.2860   47.8720   -1.2870 H   0  0  0  0  0  0  0  0  0  0  0  0
   29.3900   48.7290   -2.4890 H   0  0  0  0  0  0  0  0  0  0  0  0
   29.7300   45.9500   -2.1590 H   0  0  0  0  0  0  0  0  0  0  0  0
   27.4940   45.1870   -2.5320 H   0  0  0  0  0  0  0  0  0  0  0  0
   28.2170   47.2290   -4.3990 H   0  0  0  0  0  0  0  0  0  0  0  0
   28.9850   45.6830   -4.3430 H   0  0  0  0  0  0  0  0  0  0  0  0
   31.6990   46.0340   -3.6840 H   0  0  0  0  0  0  0  0  0  0  0  0
   33.6790   47.1270   -4.7370 H   0  0  0  0  0  0  0  0  0  0  0  0
   29.1410   48.8610   -5.5820 H   0  0  0  0  0  0  0  0  0  0  0  0
   31.0920   49.9760   -6.6240 H   0  0  0  0  0  0  0  0  0  0  0  0
   33.3790   49.0910   -6.2100 H   0  0  0  0  0  0  0  0  0  0  0  0
  2 13  1  6  0  0  0
  2 22  1  0  0  0  0
  2  1  1  0  0  0  0
  2  3  1  0  0  0  0
  3  5  1  6  0  0  0
  3  4  1  0  0  0  0
  3 23  1  0  0  0  0
  5  7  1  6  0  0  0
  5  6  1  0  0  0  0
  7 26  1  1  0  0  0
  8  7  1  0  0  0  0
  8 27  1  0  0  0  0
  9 29  1  0  0  0  0
  9  8  1  0  0  0  0
 10 31  1  0  0  0  0
 10 13  1  0  0  0  0
 10  7  1  0  0  0  0
 11 32  1  0  0  0  0
 11  5  1  0  0  0  0
 12 34  1  0  0  0  0
 12 13  1  1  0  0  0
 12 11  1  0  0  0  0
 13 35  1  6  0  0  0
 14 12  1  0  0  0  0
 15 16  1  0  0  0  0
 15 14  1  0  0  0  0
 16 38  1  0  0  0  0
 17 39  1  0  0  0  0
 17 16  2  0  0  0  0
 18 15  2  0  0  0  0
 19 20  2  0  0  0  0
 19 18  1  0  0  0  0
 20 17  1  0  0  0  0
 21  1  1  0  0  0  0
 24  4  1  0  0  0  0
 25  6  1  0  0  0  0
 28  8  1  0  0  0  0
 30 10  1  0  0  0  0
 33 11  1  0  0  0  0
 36 14  1  0  0  0  0
 37 14  1  0  0  0  0
 40 18  1  0  0  0  0
 41 19  1  0  0  0  0
 42 20  1  0  0  0  0
M  CHG  1  12   1
M  END
$$$$
