3ov1_ligand_rnum.pdb
 OpenBabel02151809393D

 58 59  0  0  1  0  0  0  0  0999 V2000
  -13.6590   13.3310   -2.4890 C   0  0  0  0  0  0  0  0  0  0  0  0
  -14.1780   12.2070   -2.5230 O   0  0  0  0  0  0  0  0  0  0  0  0
  -13.7790   14.2530   -3.6690 C   0  0  0  0  0  0  0  0  0  0  0  0
  -12.9990   13.8210   -1.4770 N   0  0  0  0  0  0  0  0  0  0  0  0
  -12.7650   12.9410   -0.2770 C   0  0  2  0  0  0  0  0  0  0  0  0
  -13.1440   13.6920    1.0160 C   0  0  0  0  0  0  0  0  0  0  0  0
  -12.8720   14.8890    1.1720 O   0  0  0  0  0  0  0  0  0  0  0  0
  -11.2870   12.5730   -0.1190 C   0  0  0  0  0  0  0  0  0  0  0  0
  -10.8580   11.8380   -1.4220 C   0  0  0  0  0  0  0  0  0  0  0  0
  -10.3740   12.5930   -2.4720 C   0  0  0  0  0  0  0  0  0  0  0  0
  -11.0310   10.4590   -1.5710 C   0  0  0  0  0  0  0  0  0  0  0  0
  -10.0200   12.0200   -3.6690 C   0  0  0  0  0  0  0  0  0  0  0  0
  -10.7120    9.9050   -2.8250 C   0  0  0  0  0  0  0  0  0  0  0  0
  -10.2140   10.6580   -3.8910 C   0  0  0  0  0  0  0  0  0  0  0  0
   -9.8950   10.1540   -5.1580 O   0  0  0  0  0  0  0  0  0  0  0  0
  -10.2270    8.6340   -5.6580 P   0  0  0  0  0  0  0  0  0  0  0  0
  -10.0090    8.8150   -7.1890 O   0  0  0  0  0  0  0  0  0  0  0  0
   -9.1790    7.7540   -5.0650 O   0  5  0  0  0  0  0  0  0  0  0  0
  -11.6280    8.4060   -5.4010 O   0  5  0  0  0  0  0  0  0  0  0  0
  -15.5160   14.3000    3.1210 C   0  0  0  0  0  0  0  0  0  0  0  0
  -15.3340   13.0410    3.9310 C   0  0  0  0  0  0  0  0  0  0  0  0
  -14.1810   13.6370    3.1400 C   0  0  0  0  0  0  0  0  0  0  0  0
  -13.0700   14.1400    4.0390 C   0  0  0  0  0  0  0  0  0  0  0  0
  -13.2960   15.0480    4.8690 O   0  0  0  0  0  0  0  0  0  0  0  0
  -13.7640   12.9400    1.9640 N   0  0  0  0  0  0  0  0  0  0  0  0
  -11.8530   13.5910    3.8970 N   0  0  0  0  0  0  0  0  0  0  0  0
  -10.7050   14.0510    4.6390 C   0  0  2  0  0  0  0  0  0  0  0  0
   -9.7330   14.7920    3.6830 C   0  0  0  0  0  0  0  0  0  0  0  0
   -8.5470   14.9650    4.0270 O   0  0  0  0  0  0  0  0  0  0  0  0
  -10.0330   12.8660    5.3610 C   0  0  0  0  0  0  0  0  0  0  0  0
   -9.5220   11.7930    4.3970 C   0  0  0  0  0  0  0  0  0  0  0  0
   -9.9510   11.7660    3.2500 O   0  0  0  0  0  0  0  0  0  0  0  0
   -8.5970   10.9420    4.8900 N   0  0  0  0  0  0  0  0  0  0  0  0
  -10.2100   15.2760    2.5260 N   0  0  0  0  0  0  0  0  0  0  0  0
  -13.0830   15.0910   -3.6080 H   0  0  0  0  0  0  0  0  0  0  0  0
  -13.5680   13.7100   -4.5910 H   0  0  0  0  0  0  0  0  0  0  0  0
  -14.7920   14.6520   -3.7320 H   0  0  0  0  0  0  0  0  0  0  0  0
  -12.6220   14.7570   -1.4930 H   0  0  0  0  0  0  0  0  0  0  0  0
  -13.3500   12.0270   -0.3250 H   0  0  0  0  0  0  0  0  0  0  0  0
  -11.1340   11.9130    0.7350 H   0  0  0  0  0  0  0  0  0  0  0  0
  -10.6590   13.4530    0.0330 H   0  0  0  0  0  0  0  0  0  0  0  0
  -10.2520   13.6590   -2.3520 H   0  0  0  0  0  0  0  0  0  0  0  0
  -11.4240    9.8470   -0.7740 H   0  0  0  0  0  0  0  0  0  0  0  0
   -9.6320   12.6380   -4.4650 H   0  0  0  0  0  0  0  0  0  0  0  0
  -10.8590    8.8420   -2.9440 H   0  0  0  0  0  0  0  0  0  0  0  0
  -15.6400   15.2310    3.6710 H   0  0  0  0  0  0  0  0  0  0  0  0
  -16.0960   14.2340    2.2030 H   0  0  0  0  0  0  0  0  0  0  0  0
  -15.7800   12.1220    3.5540 H   0  0  0  0  0  0  0  0  0  0  0  0
  -15.3430   13.1460    5.0150 H   0  0  0  0  0  0  0  0  0  0  0  0
  -13.9640   11.9550    1.8320 H   0  0  0  0  0  0  0  0  0  0  0  0
  -11.7120   12.8500    3.2240 H   0  0  0  0  0  0  0  0  0  0  0  0
  -10.9670   14.7870    5.3970 H   0  0  0  0  0  0  0  0  0  0  0  0
  -10.7400   12.3940    6.0420 H   0  0  0  0  0  0  0  0  0  0  0  0
   -9.2070   13.2210    5.9790 H   0  0  0  0  0  0  0  0  0  0  0  0
   -8.2210   10.1990    4.3110 H   0  0  0  0  0  0  0  0  0  0  0  0
   -8.2720   11.0510    5.8440 H   0  0  0  0  0  0  0  0  0  0  0  0
   -9.6050   15.8000    1.9120 H   0  0  0  0  0  0  0  0  0  0  0  0
  -11.1850   15.1440    2.2890 H   0  0  0  0  0  0  0  0  0  0  0  0
  1  4  1  0  0  0  0
  2  1  2  0  0  0  0
  3 35  1  0  0  0  0
  3  1  1  0  0  0  0
  4  5  1  0  0  0  0
  5 39  1  6  0  0  0
  5  8  1  0  0  0  0
  5  6  1  0  0  0  0
  6  7  2  0  0  0  0
  6 25  1  0  0  0  0
  8 41  1  0  0  0  0
  8 40  1  0  0  0  0
  9  8  1  0  0  0  0
 10 42  1  0  0  0  0
 10  9  2  0  0  0  0
 11  9  1  0  0  0  0
 11 43  1  0  0  0  0
 12 10  1  0  0  0  0
 13 11  2  0  0  0  0
 14 12  2  0  0  0  0
 14 13  1  0  0  0  0
 15 14  1  0  0  0  0
 16 19  1  0  0  0  0
 16 15  1  0  0  0  0
 16 18  1  0  0  0  0
 17 16  2  0  0  0  0
 20 22  1  0  0  0  0
 20 46  1  0  0  0  0
 20 21  1  0  0  0  0
 21 49  1  0  0  0  0
 22 21  1  0  0  0  0
 22 23  1  0  0  0  0
 23 24  2  0  0  0  0
 25 22  1  0  0  0  0
 26 23  1  0  0  0  0
 26 27  1  0  0  0  0
 27 30  1  0  0  0  0
 27 52  1  1  0  0  0
 28 29  2  0  0  0  0
 28 27  1  0  0  0  0
 30 54  1  0  0  0  0
 30 53  1  0  0  0  0
 31 33  1  0  0  0  0
 31 30  1  0  0  0  0
 32 31  2  0  0  0  0
 33 56  1  0  0  0  0
 34 28  1  0  0  0  0
 36  3  1  0  0  0  0
 37  3  1  0  0  0  0
 38  4  1  0  0  0  0
 44 12  1  0  0  0  0
 45 13  1  0  0  0  0
 47 20  1  0  0  0  0
 48 21  1  0  0  0  0
 50 25  1  0  0  0  0
 51 26  1  0  0  0  0
 55 33  1  0  0  0  0
 57 34  1  0  0  0  0
 58 34  1  0  0  0  0
M  CHG  2  18  -1  19  -1
M  END
$$$$
