3e93_ligand_rnum.pdb
 OpenBabel02151809393D

 70 75  0  0  0  0  0  0  0  0999 V2000
   41.0000   29.8000   36.2000 O   0  0  0  0  0  0  0  0  0  0  0  0
   40.1650   29.4840   35.3570 C   0  0  0  0  0  0  0  0  0  0  0  0
   39.3020   28.4420   35.5360 N   0  0  0  0  0  0  0  0  0  0  0  0
   39.2780   27.5910   36.6470 C   0  0  0  0  0  0  0  0  0  0  0  0
   39.5450   27.9960   37.9890 C   0  0  0  0  0  0  0  0  0  0  0  0
   39.5250   27.0920   39.0830 C   0  0  0  0  0  0  0  0  0  0  0  0
   39.2210   25.7450   38.7730 C   0  0  0  0  0  0  0  0  0  0  0  0
   38.9480   25.3350   37.4620 C   0  0  0  0  0  0  0  0  0  0  0  0
   38.9790   26.2530   36.4030 C   0  0  0  0  0  0  0  0  0  0  0  0
   39.8530   27.4950   40.3960 N   0  0  0  0  0  0  0  0  0  0  0  0
   40.4560   28.8390   40.5990 C   0  0  0  0  0  0  0  0  0  0  0  0
   40.3240   29.3880   42.0340 C   0  0  0  0  0  0  0  0  0  0  0  0
   40.7020   28.3600   42.9180 O   0  0  0  0  0  0  0  0  0  0  0  0
   39.7690   27.2960   42.9390 C   0  0  0  0  0  0  0  0  0  0  0  0
   39.7280   26.5750   41.5720 C   0  0  0  0  0  0  0  0  0  0  0  0
   40.0370   30.3310   34.1470 C   0  0  0  0  0  0  0  0  0  0  0  0
   38.8300   30.5450   33.4680 C   0  0  0  0  0  0  0  0  0  0  0  0
   38.8000   31.3890   32.3550 C   0  0  0  0  0  0  0  0  0  0  0  0
   39.9600   32.0220   31.9080 C   0  0  0  0  0  0  0  0  0  0  0  0
   39.8990   32.9340   30.6860 C   0  0  0  0  0  0  0  0  0  0  0  0
   41.1550   31.8060   32.5980 C   0  0  0  0  0  0  0  0  0  0  0  0
   41.2020   30.9790   33.7030 C   0  0  0  0  0  0  0  0  0  0  0  0
   42.3860   32.4650   32.1310 C   0  0  0  0  0  0  0  0  0  0  0  0
   43.2440   31.7670   31.2830 C   0  0  0  0  0  0  0  0  0  0  0  0
   44.4020   32.3910   30.8140 C   0  0  0  0  0  0  0  0  0  0  0  0
   44.6680   33.7200   31.2190 C   0  0  0  0  0  0  0  0  0  0  0  0
   43.8040   34.3760   32.0510 C   0  0  0  0  0  0  0  0  0  0  0  0
   44.3090   35.6250   32.2690 O   0  0  0  0  0  0  0  0  0  0  0  0
   42.6640   33.7780   32.5110 C   0  0  0  0  0  0  0  0  0  0  0  0
   45.7300   34.5770   30.9160 C   0  0  0  0  0  0  0  0  0  0  0  0
   45.4450   35.7350   31.5930 N   0  0  0  0  0  0  0  0  0  0  0  0
   46.9380   34.2910   30.0510 C   0  0  0  0  0  0  0  0  0  0  0  0
   47.9210   33.3110   30.7360 C   0  0  0  0  0  0  0  0  0  0  0  0
   48.9430   32.8140   29.7150 C   0  0  0  0  0  0  0  0  0  0  0  0
   49.7120   33.9080   29.1010 N   0  3  0  0  0  0  0  0  0  0  0  0
   48.9620   35.1390   28.7590 C   0  0  0  0  0  0  0  0  0  0  0  0
   47.7790   35.5290   29.6890 C   0  0  0  0  0  0  0  0  0  0  0  0
   38.7000   28.1890   34.7600 H   0  0  0  0  0  0  0  0  0  0  0  0
   39.7510   29.0400   38.1330 H   0  0  0  0  0  0  0  0  0  0  0  0
   39.2100   24.9910   39.5450 H   0  0  0  0  0  0  0  0  0  0  0  0
   38.7260   24.2970   37.2620 H   0  0  0  0  0  0  0  0  0  0  0  0
   38.7830   25.9080   35.3990 H   0  0  0  0  0  0  0  0  0  0  0  0
   40.0190   29.6030   39.9660 H   0  0  0  0  0  0  0  0  0  0  0  0
   41.5100   28.7510   40.3480 H   0  0  0  0  0  0  0  0  0  0  0  0
   39.3060   29.7240   42.2400 H   0  0  0  0  0  0  0  0  0  0  0  0
   40.9830   30.2450   42.1680 H   0  0  0  0  0  0  0  0  0  0  0  0
   38.7810   27.6790   43.1990 H   0  0  0  0  0  0  0  0  0  0  0  0
   40.0450   26.5900   43.7220 H   0  0  0  0  0  0  0  0  0  0  0  0
   40.5900   25.9090   41.5210 H   0  0  0  0  0  0  0  0  0  0  0  0
   38.8610   25.9290   41.4980 H   0  0  0  0  0  0  0  0  0  0  0  0
   37.9340   30.0490   33.7750 H   0  0  0  0  0  0  0  0  0  0  0  0
   37.8650   31.5420   31.8360 H   0  0  0  0  0  0  0  0  0  0  0  0
   40.6410   32.6490   29.9400 H   0  0  0  0  0  0  0  0  0  0  0  0
   38.9140   32.9130   30.2190 H   0  0  0  0  0  0  0  0  0  0  0  0
   40.0920   33.9650   30.9790 H   0  0  0  0  0  0  0  0  0  0  0  0
   42.1450   30.8270   34.2070 H   0  0  0  0  0  0  0  0  0  0  0  0
   43.0170   30.7530   30.9870 H   0  0  0  0  0  0  0  0  0  0  0  0
   45.0780   31.8660   30.1550 H   0  0  0  0  0  0  0  0  0  0  0  0
   42.0110   34.3010   33.1890 H   0  0  0  0  0  0  0  0  0  0  0  0
   46.5760   33.8410   29.1250 H   0  0  0  0  0  0  0  0  0  0  0  0
   47.3790   32.4410   31.1000 H   0  0  0  0  0  0  0  0  0  0  0  0
   48.4040   33.7670   31.6020 H   0  0  0  0  0  0  0  0  0  0  0  0
   48.4310   32.2700   28.9200 H   0  0  0  0  0  0  0  0  0  0  0  0
   49.6350   32.1100   30.1780 H   0  0  0  0  0  0  0  0  0  0  0  0
   50.1960   33.5660   28.2830 H   0  0  0  0  0  0  0  0  0  0  0  0
   50.4060   34.1800   29.7830 H   0  0  0  0  0  0  0  0  0  0  0  0
   48.5630   35.0550   27.7670 H   0  0  0  0  0  0  0  0  0  0  0  0
   49.6720   35.9650   28.7060 H   0  0  0  0  0  0  0  0  0  0  0  0
   48.1770   35.9690   30.6010 H   0  0  0  0  0  0  0  0  0  0  0  0
   47.1680   36.2860   29.2090 H   0  0  0  0  0  0  0  0  0  0  0  0
  2  3  1  0  0  0  0
  2  1  2  0  0  0  0
  3  4  1  0  0  0  0
  4  5  1  0  0  0  0
  5 39  1  0  0  0  0
  5  6  2  0  0  0  0
  6 10  1  0  0  0  0
  7  6  1  0  0  0  0
  7 40  1  0  0  0  0
  8  7  2  0  0  0  0
  9  4  2  0  0  0  0
  9  8  1  0  0  0  0
 10 11  1  0  0  0  0
 10 15  1  0  0  0  0
 11 12  1  0  0  0  0
 12 46  1  0  0  0  0
 12 45  1  0  0  0  0
 12 13  1  0  0  0  0
 13 14  1  0  0  0  0
 14 47  1  0  0  0  0
 14 48  1  0  0  0  0
 15 14  1  0  0  0  0
 16  2  1  0  0  0  0
 17 51  1  0  0  0  0
 17 16  2  0  0  0  0
 18 17  1  0  0  0  0
 19 18  2  0  0  0  0
 19 21  1  0  0  0  0
 20 55  1  0  0  0  0
 20 19  1  0  0  0  0
 21 22  2  0  0  0  0
 22 16  1  0  0  0  0
 22 56  1  0  0  0  0
 23 29  1  0  0  0  0
 23 21  1  0  0  0  0
 24 23  2  0  0  0  0
 25 26  2  0  0  0  0
 25 24  1  0  0  0  0
 26 27  1  0  0  0  0
 27 28  1  0  0  0  0
 27 29  2  0  0  0  0
 29 59  1  0  0  0  0
 30 26  1  0  0  0  0
 30 31  2  0  0  0  0
 31 28  1  0  0  0  0
 32 33  1  0  0  0  0
 32 30  1  0  0  0  0
 33 61  1  0  0  0  0
 33 62  1  0  0  0  0
 34 64  1  0  0  0  0
 34 33  1  0  0  0  0
 35 34  1  0  0  0  0
 35 66  1  0  0  0  0
 36 35  1  0  0  0  0
 36 37  1  0  0  0  0
 37 32  1  0  0  0  0
 37 69  1  0  0  0  0
 38  3  1  0  0  0  0
 41  8  1  0  0  0  0
 42  9  1  0  0  0  0
 43 11  1  0  0  0  0
 44 11  1  0  0  0  0
 49 15  1  0  0  0  0
 50 15  1  0  0  0  0
 52 18  1  0  0  0  0
 53 20  1  0  0  0  0
 54 20  1  0  0  0  0
 57 24  1  0  0  0  0
 58 25  1  0  0  0  0
 60 32  1  0  0  0  0
 63 34  1  0  0  0  0
 65 35  1  0  0  0  0
 67 36  1  0  0  0  0
 68 36  1  0  0  0  0
 70 37  1  0  0  0  0
M  CHG  1  35   1
M  END
$$$$
