1jyq_ligand_rnum.pdb
 OpenBabel02151809393D

 85 87  0  0  1  0  0  0  0  0999 V2000
  -28.8520   37.7930   35.6640 C   0  0  0  0  0  0  0  0  0  0  0  0
  -29.6420   38.9260   35.3150 C   0  0  0  0  0  0  0  0  0  0  0  0
  -29.6710   39.3420   33.9720 C   0  0  0  0  0  0  0  0  0  0  0  0
  -28.9230   38.6720   32.9890 C   0  0  0  0  0  0  0  0  0  0  0  0
  -28.0920   37.1200   34.6670 C   0  0  0  0  0  0  0  0  0  0  0  0
  -30.4900   40.4930   33.5150 C   0  0  0  0  0  0  0  0  0  0  0  0
  -29.9610   41.8270   33.4510 O   0  0  0  0  0  0  0  0  0  0  0  0
  -28.7740   42.2610   33.7710 C   0  0  0  0  0  0  0  0  0  0  0  0
  -28.0030   41.7300   34.7790 O   0  0  0  0  0  0  0  0  0  0  0  0
  -27.4060   36.9560   32.3710 N   0  0  0  0  0  0  0  0  0  0  0  0
  -28.1300   37.5700   33.3340 C   0  0  0  0  0  0  0  0  0  0  0  0
  -28.6340   43.5240   33.4430 N   0  0  0  0  0  0  0  0  0  0  0  0
  -27.4480   44.2920   33.4820 C   0  0  2  0  0  0  0  0  0  0  0  0
  -27.9920   45.6800   33.4050 C   0  0  0  0  0  0  0  0  0  0  0  0
  -28.9380   46.0270   32.6490 O   0  0  0  0  0  0  0  0  0  0  0  0
  -26.5470   44.0820   32.2300 C   0  0  0  0  0  0  0  0  0  0  0  0
  -25.8710   42.7140   32.2280 C   0  0  0  0  0  0  0  0  0  0  0  0
  -26.4600   41.6680   31.4710 C   0  0  0  0  0  0  0  0  0  0  0  0
  -24.6950   42.4720   32.9840 C   0  0  0  0  0  0  0  0  0  0  0  0
  -25.8960   40.4040   31.4610 C   0  0  0  0  0  0  0  0  0  0  0  0
  -24.0880   41.1920   32.9840 C   0  0  0  0  0  0  0  0  0  0  0  0
  -24.7360   40.1860   32.2050 C   0  0  0  0  0  0  0  0  0  0  0  0
  -24.1760   38.8990   32.1760 O   0  0  0  0  0  0  0  0  0  0  0  0
  -23.4880   38.1660   33.3190 P   0  0  2  0  0  0  0  0  0  0  0  0
  -23.9910   36.8140   33.2960 O   0  0  0  0  0  0  0  0  0  0  0  0
  -23.7460   38.7540   34.6230 O   0  5  0  0  0  0  0  0  0  0  0  0
  -21.9630   38.1250   33.0320 O   0  5  0  0  0  0  0  0  0  0  0  0
  -27.4480   46.4150   34.3280 N   0  0  0  0  0  0  0  0  0  0  0  0
  -27.8180   47.7830   34.5170 C   0  0  2  0  0  0  0  0  0  0  0  0
  -29.0700   47.8930   35.4290 C   0  0  0  0  0  0  0  0  0  0  0  0
  -27.7360   48.6120   33.2100 C   0  0  0  0  0  0  0  0  0  0  0  0
  -28.5820   49.4940   32.9640 O   0  0  0  0  0  0  0  0  0  0  0  0
  -26.6710   48.3040   35.4550 C   0  0  0  0  0  0  0  0  0  0  0  0
  -26.8940   49.6920   36.0670 C   0  0  0  0  0  0  0  0  0  0  0  0
  -27.3950   49.8120   37.3880 C   0  0  0  0  0  0  0  0  0  0  0  0
  -26.6180   50.8380   35.3130 C   0  0  0  0  0  0  0  0  0  0  0  0
  -27.6060   51.0850   37.9200 C   0  0  0  0  0  0  0  0  0  0  0  0
  -26.8210   52.1460   35.8300 C   0  0  0  0  0  0  0  0  0  0  0  0
  -27.3140   52.2200   37.1390 C   0  0  0  0  0  0  0  0  0  0  0  0
  -27.5100   53.5160   37.6550 O   0  0  0  0  0  0  0  0  0  0  0  0
  -28.2860   54.6800   36.7660 P   0  0  2  0  0  0  0  0  0  0  0  0
  -28.4530   55.8160   37.6910 O   0  0  0  0  0  0  0  0  0  0  0  0
  -29.5550   54.1220   36.2400 O   0  5  0  0  0  0  0  0  0  0  0  0
  -27.4420   55.0860   35.6060 O   0  5  0  0  0  0  0  0  0  0  0  0
  -26.7850   48.3170   32.3440 N   0  0  0  0  0  0  0  0  0  0  0  0
  -26.7030   49.0630   31.1070 C   0  0  2  0  0  0  0  0  0  0  0  0
  -27.2720   48.2090   29.9730 C   0  0  0  0  0  0  0  0  0  0  0  0
  -28.1160   47.2850   30.1990 O   0  0  0  0  0  0  0  0  0  0  0  0
  -25.2350   49.4440   30.7670 C   0  0  0  0  0  0  0  0  0  0  0  0
  -24.2930   48.1900   30.6050 C   0  0  0  0  0  0  0  0  0  0  0  0
  -24.5070   47.1770   31.2010 O   0  0  0  0  0  0  0  0  0  0  0  0
  -23.2600   48.3260   29.8210 N   0  0  0  0  0  0  0  0  0  0  0  0
  -26.8840   48.4730   28.8370 O   0  5  0  0  0  0  0  0  0  0  0  0
  -28.8250   37.4470   36.6870 H   0  0  0  0  0  0  0  0  0  0  0  0
  -30.2240   39.4410   36.0640 H   0  0  0  0  0  0  0  0  0  0  0  0
  -28.9520   39.0140   31.9640 H   0  0  0  0  0  0  0  0  0  0  0  0
  -27.4830   36.2700   34.9390 H   0  0  0  0  0  0  0  0  0  0  0  0
  -31.3700   40.5380   34.1570 H   0  0  0  0  0  0  0  0  0  0  0  0
  -30.8760   40.2570   32.5230 H   0  0  0  0  0  0  0  0  0  0  0  0
  -26.5940   36.4240   32.6550 H   0  0  0  0  0  0  0  0  0  0  0  0
  -27.2750   37.4400   31.4950 H   0  0  0  0  0  0  0  0  0  0  0  0
  -29.4020   43.9220   32.9210 H   0  0  0  0  0  0  0  0  0  0  0  0
  -26.9500   44.0570   34.4170 H   0  0  0  0  0  0  0  0  0  0  0  0
  -25.7630   44.8400   32.1960 H   0  0  0  0  0  0  0  0  0  0  0  0
  -27.1360   44.2050   31.3210 H   0  0  0  0  0  0  0  0  0  0  0  0
  -27.3600   41.8510   30.9030 H   0  0  0  0  0  0  0  0  0  0  0  0
  -24.2460   43.2650   33.5520 H   0  0  0  0  0  0  0  0  0  0  0  0
  -26.3410   39.6030   30.8900 H   0  0  0  0  0  0  0  0  0  0  0  0
  -23.1790   41.0110   33.5370 H   0  0  0  0  0  0  0  0  0  0  0  0
  -26.7010   46.0290   34.8920 H   0  0  0  0  0  0  0  0  0  0  0  0
  -29.3970   48.9250   35.5620 H   0  0  0  0  0  0  0  0  0  0  0  0
  -29.9130   47.3650   34.9830 H   0  0  0  0  0  0  0  0  0  0  0  0
  -28.9100   47.4540   36.4150 H   0  0  0  0  0  0  0  0  0  0  0  0
  -25.7150   48.3210   34.9270 H   0  0  0  0  0  0  0  0  0  0  0  0
  -26.5110   47.6080   36.2810 H   0  0  0  0  0  0  0  0  0  0  0  0
  -27.6220   48.9360   37.9470 H   0  0  0  0  0  0  0  0  0  0  0  0
  -26.2240   50.7360   34.3130 H   0  0  0  0  0  0  0  0  0  0  0  0
  -27.9910   51.1990   38.9220 H   0  0  0  0  0  0  0  0  0  0  0  0
  -26.5620   52.9980   35.2310 H   0  0  0  0  0  0  0  0  0  0  0  0
  -26.1330   47.5640   32.5100 H   0  0  0  0  0  0  0  0  0  0  0  0
  -27.2610   50.0000   31.1080 H   0  0  0  0  0  0  0  0  0  0  0  0
  -24.8330   50.0670   31.5660 H   0  0  0  0  0  0  0  0  0  0  0  0
  -25.1900   50.0610   29.8680 H   0  0  0  0  0  0  0  0  0  0  0  0
  -22.6030   47.5620   29.7080 H   0  0  0  0  0  0  0  0  0  0  0  0
  -23.1230   49.1960   29.3200 H   0  0  0  0  0  0  0  0  0  0  0  0
  1 54  1  0  0  0  0
  2  1  1  0  0  0  0
  2 55  1  0  0  0  0
  3  2  2  0  0  0  0
  4 11  2  0  0  0  0
  4  3  1  0  0  0  0
  5 57  1  0  0  0  0
  5  1  2  0  0  0  0
  6  3  1  0  0  0  0
  6 58  1  0  0  0  0
  7  6  1  0  0  0  0
  7  8  1  0  0  0  0
  8  9  2  0  0  0  0
 10 60  1  0  0  0  0
 10 11  1  0  0  0  0
 11  5  1  0  0  0  0
 12 13  1  0  0  0  0
 12  8  1  0  0  0  0
 13 63  1  1  0  0  0
 14 13  1  0  0  0  0
 14 28  1  0  0  0  0
 15 14  2  0  0  0  0
 16 13  1  0  0  0  0
 17 16  1  0  0  0  0
 17 19  2  0  0  0  0
 18 17  1  0  0  0  0
 19 67  1  0  0  0  0
 20 18  2  0  0  0  0
 20 22  1  0  0  0  0
 21 19  1  0  0  0  0
 21 69  1  0  0  0  0
 22 21  2  0  0  0  0
 23 22  1  0  0  0  0
 23 24  1  0  0  0  0
 24 27  2  6  0  0  0
 24 26  1  0  0  0  0
 25 24  1  0  0  0  0
 28 29  1  0  0  0  0
 28 70  1  0  0  0  0
 29 31  1  6  0  0  0
 29 30  1  0  0  0  0
 29 33  1  0  0  0  0
 30 71  1  0  0  0  0
 30 73  1  0  0  0  0
 32 31  2  0  0  0  0
 33 34  1  0  0  0  0
 33 75  1  0  0  0  0
 34 35  2  0  0  0  0
 35 37  1  0  0  0  0
 35 76  1  0  0  0  0
 36 38  2  0  0  0  0
 36 34  1  0  0  0  0
 37 78  1  0  0  0  0
 38 39  1  0  0  0  0
 39 40  1  0  0  0  0
 39 37  2  0  0  0  0
 41 44  2  6  0  0  0
 41 40  1  0  0  0  0
 41 42  1  0  0  0  0
 43 41  1  0  0  0  0
 45 80  1  0  0  0  0
 45 31  1  0  0  0  0
 46 81  1  1  0  0  0
 46 45  1  0  0  0  0
 47 48  1  0  0  0  0
 47 46  1  0  0  0  0
 49 46  1  0  0  0  0
 49 82  1  0  0  0  0
 50 49  1  0  0  0  0
 50 51  2  0  0  0  0
 52 50  1  0  0  0  0
 53 47  2  0  0  0  0
 56  4  1  0  0  0  0
 59  6  1  0  0  0  0
 61 10  1  0  0  0  0
 62 12  1  0  0  0  0
 64 16  1  0  0  0  0
 65 16  1  0  0  0  0
 66 18  1  0  0  0  0
 68 20  1  0  0  0  0
 72 30  1  0  0  0  0
 74 33  1  0  0  0  0
 77 36  1  0  0  0  0
 79 38  1  0  0  0  0
 83 49  1  0  0  0  0
 84 52  1  0  0  0  0
 85 52  1  0  0  0  0
M  CHG  5  26  -1  27  -1  43  -1  44  -1  53  -1
M  END
$$$$
