1gpk_ligand_rnum.pdb
 OpenBabel02151809393D

 37 39  0  0  1  0  0  0  0  0999 V2000
    0.7260   68.8480   60.5950 C   0  0  0  0  0  0  0  0  0  0  0  0
    0.2650   69.3310   59.5260 O   0  0  0  0  0  0  0  0  0  0  0  0
    2.0070   68.2910   60.6140 N   0  0  0  0  0  0  0  0  0  0  0  0
    0.0030   68.8250   61.8590 C   0  0  0  0  0  0  0  0  0  0  0  0
    0.5760   68.2720   62.9860 C   0  0  0  0  0  0  0  0  0  0  0  0
    1.9080   67.6940   62.9880 C   0  0  0  0  0  0  0  0  0  0  0  0
    2.6240   67.7230   61.7490 C   0  0  0  0  0  0  0  0  0  0  0  0
    4.0170   67.1690   61.5600 C   0  0  0  0  0  0  0  0  0  0  0  0
    4.6570   66.5980   62.9020 C   0  0  1  0  0  0  0  0  0  0  0  0
    5.3760   67.6940   63.7160 C   0  0  0  0  0  0  0  0  0  0  0  0
    4.3520   63.5530   63.7420 C   0  0  0  0  0  0  0  0  0  0  0  0
    3.4630   64.6910   64.1430 C   0  0  0  0  0  0  0  0  0  0  0  0
    3.5630   65.9670   63.7940 C   0  0  0  0  0  0  0  0  0  0  0  0
    2.5690   67.0470   64.2830 C   0  0  2  0  0  0  0  0  0  0  0  0
    1.5080   66.4560   65.1460 N   0  3  0  0  0  0  0  0  0  0  0  0
    3.3210   68.1300   65.1110 C   0  0  0  0  0  0  0  0  0  0  0  0
    4.7650   68.3870   64.7180 C   0  0  0  0  0  0  0  0  0  0  0  0
    5.4530   69.4590   65.5360 C   0  0  0  0  0  0  0  0  0  0  0  0
    2.5520   68.2990   59.7640 H   0  0  0  0  0  0  0  0  0  0  0  0
   -0.9840   69.2590   61.9210 H   0  0  0  0  0  0  0  0  0  0  0  0
    0.0030   68.2930   63.9010 H   0  0  0  0  0  0  0  0  0  0  0  0
    4.6600   67.9440   61.1410 H   0  0  0  0  0  0  0  0  0  0  0  0
    3.9860   66.3840   60.8170 H   0  0  0  0  0  0  0  0  0  0  0  0
    5.3960   65.8500   62.6260 H   0  0  0  0  0  0  0  0  0  0  0  0
    6.3970   67.9210   63.4430 H   0  0  0  0  0  0  0  0  0  0  0  0
    4.3380   62.7810   64.5090 H   0  0  0  0  0  0  0  0  0  0  0  0
    4.0270   63.1100   62.8080 H   0  0  0  0  0  0  0  0  0  0  0  0
    5.3810   63.8780   63.6060 H   0  0  0  0  0  0  0  0  0  0  0  0
    2.6360   64.3500   64.7460 H   0  0  0  0  0  0  0  0  0  0  0  0
    1.9330   65.9720   65.9240 H   0  0  0  0  0  0  0  0  0  0  0  0
    0.9100   67.1910   65.4940 H   0  0  0  0  0  0  0  0  0  0  0  0
    0.9530   65.8060   64.6050 H   0  0  0  0  0  0  0  0  0  0  0  0
    3.3530   67.8260   66.1580 H   0  0  0  0  0  0  0  0  0  0  0  0
    2.7700   69.0710   65.0900 H   0  0  0  0  0  0  0  0  0  0  0  0
    4.8700   70.3750   65.5280 H   0  0  0  0  0  0  0  0  0  0  0  0
    5.5650   69.1340   66.5660 H   0  0  0  0  0  0  0  0  0  0  0  0
    6.4450   69.6820   65.1420 H   0  0  0  0  0  0  0  0  0  0  0  0
  1  3  1  0  0  0  0
  1  4  1  0  0  0  0
  2  1  2  0  0  0  0
  3  7  1  0  0  0  0
  4 20  1  0  0  0  0
  4  5  2  0  0  0  0
  5  6  1  0  0  0  0
  5 21  1  0  0  0  0
  6 14  1  0  0  0  0
  7  6  2  0  0  0  0
  8  7  1  0  0  0  0
  8  9  1  0  0  0  0
  9 24  1  6  0  0  0
  9 10  1  0  0  0  0
  9 13  1  0  0  0  0
 10 17  2  0  0  0  0
 11 12  1  0  0  0  0
 11 26  1  0  0  0  0
 12 29  1  0  0  0  0
 13 12  2  0  0  0  0
 13 14  1  0  0  0  0
 14 16  1  0  0  0  0
 14 15  1  1  0  0  0
 15 31  1  0  0  0  0
 15 30  1  0  0  0  0
 16 33  1  0  0  0  0
 17 16  1  0  0  0  0
 17 18  1  0  0  0  0
 18 36  1  0  0  0  0
 19  3  1  0  0  0  0
 22  8  1  0  0  0  0
 23  8  1  0  0  0  0
 25 10  1  0  0  0  0
 27 11  1  0  0  0  0
 28 11  1  0  0  0  0
 32 15  1  0  0  0  0
 34 16  1  0  0  0  0
 35 18  1  0  0  0  0
 37 18  1  0  0  0  0
M  CHG  1  15   1
M  END
$$$$
